5

C    -2.58192 -0.023789999999999995 -0.0
H    -1.4725099999999998 -0.023779999999999996 -0.0
H    -2.95171 -0.86697 0.61892
H    -2.95172 -0.13819 -1.03968
H    -2.95172 0.9337999999999999 0.42076
5

C    -2.581917020385779 -0.02378701421709907 3.8956495923144356e-9
H    -1.4808776005799809 -0.02378019814337316 -2.171885067900057e-6
H    -2.948923499771422 -0.8606182234743958 0.6142541202817507
H    -2.94892979388614 -0.13733010611618798 -1.0318416987833567
H    -2.9489320853766783 0.9265855420039734 0.4175897464381069
5

C    -2.5819163176229973 -0.023786310970074852 4.223262152344319e-9
H    -1.4803207955973279 -0.02378053046997938 -2.055601938780535e-6
H    -2.949109146684251 -0.8610398208972427 0.6145632713661714
H    -2.949115724287491 -0.13738812300115713 -1.0323620875983237
H    -2.9491180158079335 0.9270647853419705 0.41780086755791185
5

C    -2.5819160844815294 -0.023786082905083016 1.0085667729744326e-9
H    -1.480332667385562 -0.023780639637678038 -2.0762360660544493e-6
H    -2.9491052395747985 -0.8610306464970368 0.6145563938568985
H    -2.949111819271966 -0.13738707494745228 -1.032350734489593
H    -2.949114189234367 0.9270544439389136 0.4177964158590536
5

C    -2.5819160213809544 -0.023786020987491722 2.723968464770676e-10
H    -1.4803326427008168 -0.02378067496539111 -2.0773025505024194e-6
H    -2.949105254527466 -0.861030603209281 0.614556328082064
H    -2.9491118456840346 -0.13738712101608666 -1.0323506824042976
H    -2.949114235654952 0.9270544201299146 0.4177964314042498
5

C    -2.5819160054098593 -0.023786005341439438 6.920105532550137e-11
H    -1.4803326326530524 -0.0237806844591421 -2.0775613680757767e-6
H    -2.9491052591136064 -0.8610305969246097 0.6145563149472891
H    -2.9491118533997476 -0.13738713226280425 -1.0323506740055102
H    -2.9491142493190408 0.927054418939659 0.4177964366022508
5

C    -2.5819160013570563 -0.023786001363987654 1.1661596379051017e-11
H    -1.4803326299797444 -0.023780687118673247 -2.0776924160094754e-6
H    -2.9491052602050547 -0.8610305951594964 0.6145563116879638
H    -2.9491118555623737 -0.13738713503531674 -1.0323506718281634
H    -2.9491142527910768 0.9270544186291375 0.4177964378198991
5

C    -2.581916000332122 -0.023786000353343915 -9.446973269684085e-12
H    -1.4803326293156964 -0.02378068780961538 -2.0777844741868348e-6
H    -2.9491052604503074 -0.8610305946830951 0.6145563109365766
H    -2.949111856172639 -0.1373871357900951 -1.0323506712623187
H    -2.949114253677459 0.9270544185878129 0.4177964380656907
