29

O 1.2254092860971477 0.006861938213065494 -2.1714945074109813
O -0.7899371958433331 2.355375459088116 0.23748124484084765
O -5.084559799007496 1.1514146742332676 -0.08370259931824055
O -0.12249816767676583 -0.24933797007781613 2.143476708721496
C 1.2949444402903305 -0.11491635808210324 -0.9941625532678013
C -1.1398381367827963 0.12668546715958545 -0.5482756969053151
C -2.1539542023378955 -0.958091086502314 -0.19141184986290552
C -3.532360921219951 -0.5493403494721103 -0.6992812042826344
C -3.951720714949701 0.8203170920766167 -0.22223800669476365
C -1.5659603167698986 1.501305903681236 -0.04217966639886689
C 2.50494727525074 -0.26430282382103465 -0.1374393429220982
C 3.8390329241100263 -0.32068795182765875 -0.48606267941647363
C 4.758810312071359 -0.4583009432210533 0.5493171903148679
C 4.344100400493373 -0.5342825362200728 1.877996849571215
C 2.9950849583820554 -0.47542942281463174 2.2151258974847807
C 2.0934571568924585 -0.33979851262048355 1.1792620519435508
C 0.6065785750867101 -0.2447013107194743 1.2079412081584093
N 0.20849148708605308 -0.16004158049244133 -0.12343484685280683
N -2.9242607986963054 1.7140161927058772 0.02868675690344421
H -1.0874690627630903 0.2183904743229904 -1.634080014762801
H -1.8480595912096727 -1.8995619899499905 -0.6469775659464011
H -2.174144913321342 -1.103568814460732 0.8879315610739102
H -3.5437475789693074 -0.5155281181983096 -1.7933166336582416
H -4.308033689367239 -1.2476435096982719 -0.3938841098471935
H -3.204900162440997 2.626126189086063 0.3381774368328167
H 4.150601934369582 -0.2576414224298002 -1.5184620558856514
H 5.815228456831038 -0.5051170588178925 0.32250426017924105
H 5.08598750841268 -0.6386233349304403 2.658013020625192
H 2.6630244196401613 -0.5300625043011359 3.241568401184959
29

O 1.222051702977709 -0.047976935285102135 -2.176702298518663
O -0.761716069473667 2.318190562165025 0.2688610474325302
O -5.072114658499238 1.1695348731162998 -0.06150589766231997
O -0.1265718828837004 -0.26782655832103797 2.1396549893562944
C 1.2913592718548452 -0.15366985992816215 -0.9978078719613436
C -1.1401339621406408 0.1133114784252714 -0.5518639933168988
C -2.1660745545731133 -0.9628310899799294 -0.2118838056858447
C -3.5383227024631174 -0.5299261060552017 -0.7147944682224556
C -3.9427534155620347 0.8325450085904837 -0.21192397282135994
C -1.551395336867879 1.4826841732519151 -0.025609993451771236
C 2.501297313905752 -0.2863417068497698 -0.13918865263730257
C 3.83582294903732 -0.33181455746633065 -0.48615119119245365
C 4.757039209450443 -0.4380333436868053 0.5510870155889122
C 4.3423605449966365 -0.49559712572118836 1.8802797769389081
C 2.9928401747616986 -0.4512829135534189 2.2159383529904106
C 2.0901992450813203 -0.3460309528803493 1.1779834339651574
C 0.603220071886174 -0.26287781107041364 1.2049453717640406
N 0.20486089543729144 -0.19016913037814087 -0.12728966129642744
N -2.905901705776993 1.710017560080849 0.05338436937533853
H -1.0834861267803242 0.21717632383902905 -1.6357095769344292
H -1.8712955792290549 -1.8979092316121875 -0.681751285767459
H -2.189702963776529 -1.1226037230408945 0.8649373728496724
H -3.5459353342946676 -0.47672918151738103 -1.807531265954358
H -4.322626008698774 -1.2226158154186721 -0.42435952458902715
H -3.175781541224535 2.6150276711077085 0.38660331584004376
H 4.147049246603189 -0.28148763846686164 -1.5189570969727801
H 5.81374468182685 -0.473287709597674 0.32543109428541395
H 5.084847183563263 -0.573973768163315 2.6621776202997394
H 2.6613732334794578 -0.49198669916449717 3.242826051743382
29

O 1.2126677058733322 -0.085455654371993 -2.194836295049347
O -0.6770967934695011 2.2328833557241263 0.4988214156857565
O -5.028732011643822 1.2578183454163758 0.1100295341889958
O -0.1390687248676852 -0.3873451637724787 2.1139375749982037
C 1.2799471285190458 -0.20205156487442427 -1.0168642810028887
C -1.136088381432121 0.16049518931259257 -0.5535902582156154
C -2.201286493903016 -0.9018927040693103 -0.3378660048681535
C -3.5506568682346216 -0.36393564925610117 -0.7926729342068737
C -3.9106140262315763 0.9259328821845592 -0.11336089312612818
C -1.5029710716360574 1.4739180675305736 0.11569650077267837
C 2.487300443760497 -0.36221164863183125 -0.1620084548931173
C 3.820724474715334 -0.40154527471459966 -0.5088149179372081
C 4.743068889194752 -0.5016759256230403 0.5264821416911692
C 4.329714253489133 -0.5624170865671299 1.8545475488722611
C 2.980776657522796 -0.5337755401468147 2.1894758023311534
C 2.0772994506913576 -0.43294554799771995 1.1536012972218148
C 0.5922398079953282 -0.34869009668610257 1.1821325896631276
N 0.19402045998681697 -0.22608388806038948 -0.1472202327771073
N -2.8458121999832806 1.7310395734194557 0.24510484594485746
H -1.0594939707247069 0.36647946554026894 -1.6193086921892719
H -1.9398415998557668 -1.7811988493909305 -0.9097411104556726
H -2.2400278887933824 -1.172846450151339 0.7143433201175563
H -3.539187637773618 -0.17438621775752514 -1.8682739338838383
H -4.362810092787828 -1.052872185521205 -0.6031870087524228
H -3.0825333778317843 2.5788814513954788 0.7135783876641664
H 4.131434031173338 -0.34497025072689064 -1.540257761730527
H 5.798631801011611 -0.5269666893526539 0.30005909786343443
H 5.071899033380387 -0.6317857789290491 2.6358515059495344
H 2.6507508746310187 -0.5788803723759923 3.215420477561139
29

O    1.1800823594770762 -0.12173292790313638 -2.2070375459634883
O    -0.6622098490320599 2.0957647059984357 0.8291518762921231
O    -5.018912190721753 1.2200897983671586 0.2841370422215261
O    -0.12746645638599505 -0.5049173204185694 2.1046148683618586
C    1.258872353745768 -0.23433385162031295 -1.0292961824412639
C    -1.1315486545407702 0.22788078076260745 -0.5287879764868333
C    -2.2180830629866044 -0.824300581485035 -0.494282856839206
C    -3.5406539552984615 -0.19718538495163876 -0.8990233687903167
C    -3.9012009322701853 0.9477782039419259 -0.00814186306070886
C    -1.4956261977966079 1.429064232063431 0.3181098458570259
C    2.472033606283245 -0.41699181595237395 -0.19184812980058097
C    3.7997296180942284 -0.451173330446364 -0.551997797823024
C    4.7341812122491955 -0.5383699450174665 0.4711309453528316
C    4.3367320893712815 -0.5953764643257652 1.8017923543042256
C    2.9926365303670464 -0.5835174012774988 2.1495431992966956
C    2.077614447327864 -0.49425203567313014 1.125942485714758
C    0.595262990016641 -0.4164988514805024 1.1714984392092507
N    0.18523301997429323 -0.22902762129079926 -0.14807491322672303
N    -2.8347993613434443 1.6662396928845333 0.4923139025020999
H    -1.0227369808956046 0.5653441244059277 -1.5529793442002398
H    -1.9587383679169292 -1.605033643726575 -1.1848543224893031
H    -2.292762867310579 -1.231276245476556 0.5064280683003106
H    -3.4808817620175447 0.1606514815468098 -1.9246554464909342
H    -4.372037820340518 -0.8787380635775307 -0.8642001948824396
H    -3.066042015320471 2.390118560177723 1.1317879662626775
H    4.098830408940951 -0.39416926563867044 -1.5848510776936766
H    5.785149926146923 -0.5537340230329766 0.23255032042689386
H    5.086029979941882 -0.6497493016333238 2.5746083344624986
H    2.6755658093671637 -0.6290377213252123 3.1775006187898067
29

O    1.109265336464703 -0.14164952975504339 -2.182753083578074
O    -0.7602902162874309 1.9199775684724527 1.1971425288399709
O    -5.065925368313598 1.1100325598714837 0.29187125923702956
O    -0.061795158441298764 -0.5818750873509558 2.1547844283586812
C    1.224418493173625 -0.2373656153433065 -1.0063364058035185
C    -1.1332533481818643 0.28672290536386696 -0.4513665588651918
C    -2.2070589802215093 -0.7560126449240563 -0.6119954882995812
C    -3.5035637027500606 -0.08443043925264704 -1.0114767238510107
C    -3.929983935391422 0.9032529760785403 0.018280492683663517
C    -1.5543254242561622 1.3436646305898505 0.5399244717943547
C    2.4593636773350935 -0.42791225701926894 -0.21085948224480833
C    3.7728081827203392 -0.45908090200696133 -0.609415935565271
C    4.7382136664469705 -0.5319577608148012 0.3821758998341892
C    4.382694587360942 -0.5810401165301826 1.7216383274908789
C    3.0516765136296553 -0.5813389148314028 2.107823838489847
C    2.106571918011295 -0.5059087578927511 1.1153741110132382
C    0.6287802158416508 -0.4430291525792657 1.2068246321270724
N    0.18186660190440734 -0.19886141970608323 -0.09363694125523077
N    -2.90384180480291 1.5223309550047812 0.6961973922616763
H    -0.9934832146308994 0.7442066764240483 -1.4158443573041841
H    -1.9031520985217787 -1.427118462261815 -1.3852991282447769
H    -2.338647116449487 -1.2724570483993893 0.3215671835500414
H    -3.3752049238862987 0.39684271116348874 -1.9700459871315972
H    -4.333457800678373 -0.7459564660313016 -1.1364766237563688
H    -3.176595893320559 2.095686583872729 1.456918973422793
H    4.040075605507578 -0.4070112994717217 -1.6484359097904615
H    5.7783805287768235 -0.5408563130917107 0.11108022896658117
H    5.15267636754169 -0.6209062076221922 2.4706673865096933
H    2.76804118310952 -0.6244333999746403 3.142750726077242
29

O    1.0563573944650402 -0.12470534119438181 -2.1481595750094646
O    -0.8820196321576729 1.8187618034399298 1.395936785443787
O    -5.116670105474072 1.012735688884946 0.21295906403133805
O    0.0019350917280710435 -0.5918042344653538 2.2127172334288505
C    1.202004411484573 -0.21199112510024334 -0.9742855426069053
C    -1.1410215102886123 0.30643147580923036 -0.3868298138448609
C    -2.1792463225084506 -0.7467942161019878 -0.6489128549976412
C    -3.47024983718508 -0.0829438640593524 -1.0709391748444712
C    -3.9649226601253917 0.8348296724641017 -0.009959247420565769
C    -1.6265215220664164 1.2783910005225902 0.657517745405906
C    2.4559080958940562 -0.39864907706768327 -0.2126899301890917
C    3.7577291487758404 -0.4269776398213931 -0.6432219136379915
C    4.747612099670316 -0.49396417826198213 0.3225383588875498
C    4.426202063013609 -0.5404726875836015 1.6691408527900895
C    3.1062368941838314 -0.5460721533159507 2.0874916496184013
C    2.1370441854460465 -0.47694983280896314 1.120317241417171
C    0.6626972352636069 -0.4277134956998355 1.2496951687710949
N    0.18350407077631878 -0.1634977539507064 -0.03692404595384045
N    -2.9864068472185954 1.4122284626746966 0.7654798783247828
H    -0.9948109351651144 0.8225783119725023 -1.3154039068258492
H    -1.8264295370206762 -1.3623268019831793 -1.4449551546297354
H    -2.3392403535292003 -1.3093664352139258 0.2478351580237139
H    -3.308802708435367 0.44138801845299686 -1.9967897933679393
H    -4.280651801181402 -0.7448721404342045 -1.2711694973610883
H    -3.3067683431290993 1.9166558159940472 1.5555468852153584
H    3.99867141274124 -0.377172870215832 -1.6874373444744344
H    5.779192007577961 -0.5001186380797056 0.025271539875175303
H    5.213453979641949 -0.5749699569068054 2.3982654141549045
H    2.8494679339965954 -0.5891220299170331 3.128044075388757
29

O    1.0145212278351436 -0.1008851122746109 -2.116098649766994
O    -0.9916808943575864 1.7428113793641422 1.5312486377891252
O    -5.155511870254459 0.9284215232348428 0.13364055716094828
O    0.0560416017543275 -0.5846636234733453 2.263751748196848
C    1.184550308982044 -0.18338809789832905 -0.9449822589123787
C    -1.1499559266881243 0.3143245332674167 -0.33504390389387195
C    -2.150890234000204 -0.7528787363380506 -0.6657386224181018
C    -3.4413749165599725 -0.10571161813614133 -1.1116702000681975
C    -3.9930989653409314 0.7685569453687383 -0.04294878462290689
C    -1.6910202392424687 1.223774639238769 0.7367676178885953
C    2.4537271362063446 -0.36386807694895124 -0.21069647547930614
C    3.7459939225701757 -0.38950327204897073 -0.6670486664282658
C    4.7551259163919575 -0.45276602230138907 0.27777922106003655
C    4.461191604821011 -0.4981675414179228 1.6299189975346415
C    3.1504862222889876 -0.5071470781608524 2.074280754261494
C    2.1622331773524066 -0.44226809603159273 1.1274462770671665
C    0.6909217132632136 -0.4050937993202906 1.2875813932619036
N    0.18472380626654522 -0.1330057914181295 0.01159772519818162
N    -3.0574384196948565 1.3233181734822774 0.7979634390208907
H    -1.0051781116519833 0.8701471378340286 -1.237466231162979
H    -1.7566095182692258 -1.330508891560082 -1.470097375706827
H    -2.3266408403546306 -1.3451991545573063 0.2053740956162126
H    -3.260277990900986 0.44337625374792916 -2.016521740635784
H    -4.230198094412873 -0.7741961372110008 -1.3602898391904161
H    -3.418251887076326 1.786439677420009 1.5960215504285091
H    3.9655767259970873 -0.3410445216670288 -1.7153184609635508
H    5.7797172558570145 -0.45710780163348036 -0.040320247349851776
H    5.262358658143587 -0.5296371640644125 2.3427832724763884
H    2.9152125659428796 -0.5506139497346324 3.1191654248238323
29

O    0.6743875401589342 0.25553978135891375 -1.8139458021511112
O    -2.0091319800458787 0.7005656472610393 2.349313960757075
O    -5.247148169995978 0.08676164901192585 -0.6344052600770518
O    0.5026620296200479 -0.0816662040722301 2.7105242679854245
C    1.014903635949739 0.1775543502103421 -0.6796301983362463
C    -1.278685902103095 0.2098809744117895 0.09086282456078798
C    -1.8166105931551055 -0.9739659311501844 -0.6567048020226357
C    -3.094292650586584 -0.5694987580165509 -1.3551023344893196
C    -4.083064114575583 0.019620458821705638 -0.4095916381731013
C    -2.2516592991967976 0.4859928273965894 1.2181411179839798
C    2.3887054067144424 0.1221229060208584 -0.1628222530396852
C    3.5908938542184083 0.13190402087288808 -0.8211215823050165
C    4.7370696774211485 0.10558980707758803 -0.05133015446855135
C    4.663352169300139 0.07495180505420056 1.3308434330650405
C    3.442923547074465 0.05122019448670181 1.9776046081564227
C    2.316405711135937 0.06718865073452254 1.1984438199867082
C    0.8936049860319453 0.022196230884618324 1.6087875196199979
N    0.15241629438187076 0.11778770804221918 0.41154094484223264
N    -3.56760686656228 0.42055888677196124 0.7986648368843995
H    -1.3405262834018565 1.0127176116726135 -0.5910693093625944
H    -1.1132757769147632 -1.2724752183378656 -1.4014916396425465
H    -1.9941317270563375 -1.750169079933967 0.03751812732298314
H    -2.858212741008481 0.10540404423972922 -2.143372752538715
H    -3.608916632698256 -1.34582649785713 -1.8514232269775814
H    -4.2372505404182155 0.6180168218978929 1.5080340341095644
H    3.6373010408467104 0.16342464414901353 -1.890295912073465
H    5.6963097634674105 0.11383818326097161 -0.5282245039789994
H    5.567284551773694 0.06535184360268674 1.9058709503831994
H    3.376546971579997 0.018928382630192593 3.0454601384285787
29

O    0.6583023130293266 0.26957820493798146 -1.7954645216751974
O    -2.0593055213822122 0.5478148420694743 2.3903157355747973
O    -5.230969479077304 0.03379090695043969 -0.6762823780304154
O    0.5231851890723817 0.0006069703913791285 2.732080977669542
C    1.0034771249309897 0.19645205042816372 -0.6627896276447611
C    -1.2872238412821713 0.19156541791928516 0.11688783606644691
C    -1.7927882711115541 -0.9803002249443765 -0.6605561615629747
C    -3.060909114218789 -0.5802102239650881 -1.3712067361821718
C    -4.071071605388229 -0.02923896340809529 -0.4308195988921894
C    -2.2761267393722093 0.3933754886113609 1.2450157326927027
C    2.3779681865914966 0.15554083219490583 -0.15770986017616076
C    3.572759946358961 0.16488821890034733 -0.8235564227067307
C    4.723553608339101 0.14497128315658928 -0.06503930662837631
C    4.661276514673635 0.12230871294235511 1.315073429326092
C    3.4477655807391048 0.10305757268212347 1.9695431496845914
C    2.317064157548047 0.11180592876794114 1.201433970774836
C    0.9013630763622795 0.0714483956045862 1.6239570184390437
N    0.14827437388914286 0.1297871882126266 0.4326563834797579
N    -3.582298995630408 0.3327593019468857 0.7983335117273447
H    -1.3746720148637275 1.002260626595925 -0.54074648858925
H    -1.0794025763544466 -1.252668198184094 -1.4002897376527572
H    -1.969960996861664 -1.7626785976833135 0.015565918515388268
H    -2.816391315272569 0.10208337132580805 -2.1416273380411273
H    -3.559416245841994 -1.3410982542738252 -1.8951631169502516
H    -4.264943291998965 0.4898085068411419 1.503721693989801
H    3.6109221468104167 0.18938993765827034 -1.8907860410204205
H    5.67621463358508 0.15140074771409862 -0.5493290839224846
H    5.567183335930673 0.11610536641490639 1.88220333375324
H    3.3904237187582678 0.07891033043144817 3.0356569389191015
29

O    0.6483028987609626 0.27137759780764903 -1.790927895872429
O    -2.0661476703465995 0.493903155964969 2.4080193105671657
O    -5.224651630872057 0.01888543339715677 -0.6744602214054976
O    0.5368123361656243 0.029842933098112256 2.735819512322625
C    0.9973296787877305 0.20111694464774768 -0.6596072973866524
C    -1.2896688064437165 0.18449181113439853 0.1293711341455519
C    -1.7875318221553658 -0.981299015641231 -0.6537445380243685
C    -3.0522952599723765 -0.5817812496895203 -1.3654208630056688
C    -4.065719694370364 -0.04367282145378106 -0.4252071612723027
C    -2.278947543249124 0.3610432444100519 1.2598122005569563
C    2.372044449576743 0.16574980309651027 -0.16263326815530596
C    3.561797027565993 0.17462212315485556 -0.8331035857683616
C    4.715781447419947 0.15806769844397195 -0.08265577849735128
C    4.660900409746737 0.13869213067584593 1.2957266918334716
C    3.4521665752839286 0.1207184531637788 1.955239080266744
C    2.3187740213785673 0.12660195557678497 1.194936841556459
C    0.9079931972133498 0.08847005371465229 1.6250573501682217
N    0.14784871945150996 0.13381892193031472 0.4389166402196792
N    -3.5825080190882863 0.3019042493102172 0.8091231535264982
H    -1.3873060126481738 0.9935311362102844 -0.521286318312316
H    -1.074458926259897 -1.2453140476034106 -1.393074948280456
H    -1.9640508031469044 -1.7615072162702692 0.01796319850257889
H    -2.803944120331952 0.0987687942081879 -2.1305722762258004
H    -3.5488774692124543 -1.3326094714160133 -1.8980132322130705
H    -4.266565287917741 0.4434500606683038 1.5149531531391196
H    3.59439412629217 0.19615311841233274 -1.8987751449781658
H    5.663840105324461 0.16405707857389976 -0.5718572714274343
H    5.567917798518403 0.13435847836563136 1.8575531745814617
H    3.401024108088587 0.10007441696115041 3.0199276449070283
29

O    0.6339121916785255 0.2731803802638296 -1.7736539857413938
O    -2.0958569644957206 0.4023435033584353 2.4193625333500375
O    -5.172801817967428 -0.003743400047710726 -0.7291194730619311
O    0.5501402242275097 0.0983889789159765 2.735312189112615
C    0.9847167537092346 0.21613459255575776 -0.6438227540236185
C    -1.2900288766165906 0.16602474065037437 0.14974801745761135
C    -1.7649275982798969 -0.9943668016769671 -0.6086400869464983
C    -2.9976103360934707 -0.6075342874449037 -1.3543629296674324
C    -4.0216371320474344 -0.06893382342082995 -0.45058743812598956
C    -2.2861968220622697 0.3101895109308519 1.2658330064228867
C    2.3482477238751254 0.19326243131076598 -0.1614767766355554
C    3.5236219954657706 0.1994039843104738 -0.830394613480014
C    4.676108408537906 0.18811851413049124 -0.097190253744158
C    4.631872105190877 0.17654185191180866 1.268740678726131
C    3.4352170868774223 0.16408345005175468 1.928046687219421
C    2.306037990304147 0.16527083489958147 1.1855793886087682
C    0.9133516466979494 0.13323574457108886 1.6230306569332946
N    0.14548801692805363 0.15322722244005696 0.45211318938626216
N    -3.570639012640088 0.2514314706527602 0.7919149170104383
H    -1.4021987835150806 0.9334636903232734 -0.5162994353870076
H    -1.047592996847798 -1.2579594133429925 -1.3236980772173215
H    -1.9604451784689878 -1.7311697386171991 0.07635033361443279
H    -2.7074840576787302 0.026317280988389733 -2.121117780767499
H    -3.4972970078023446 -1.322306197493357 -1.895759741078569
H    -4.264361164378401 0.35863187315250183 1.4843252072469981
H    3.5498672011289814 0.21352332370298027 -1.8856408564888292
H    5.609345621232661 0.1912639469690076 -0.5912057975564408
H    5.531837222116822 0.1743444837889337 1.8211941471798168
H    3.3935673966243374 0.15114762182625965 2.982498328949592
