29

O    0.8978968925804365 -0.004415220575889363 -2.01557189387532
O    -1.3296447892106307 1.5127946644608603 1.8510166950777862
O    -5.238351847379031 0.6743372360138964 -0.1236294917188914
O    0.2140844873233991 -0.5123155634272559 2.4168128697245432
C    1.1338891594042833 -0.0810776952352344 -0.8550270650348682
C    -1.1844589372353407 0.31219935778175834 -0.18978927201063903
C    -2.0538814739829774 -0.8040989357741138 -0.68060731692787
C    -3.3481112458063187 -0.22969916344391156 -1.2078089942937762
C    -4.058413492866023 0.5517527810576307 -0.16031696615776136
C    -1.884967042322358 1.0484816660653522 0.922318902712352
C    2.44430197121467 -0.2339593055225387 -0.19706186599983086
C    3.7082563613758484 -0.24949006123667025 -0.7260323578475466
C    4.768765906613943 -0.30413198039453077 0.15966201039232242
C    4.5519544900609885 -0.34889728413365095 1.525846038187413
C    3.269280775904773 -0.3662740390580791 2.0429550641005902
C    2.229487617792641 -0.3120746752909339 1.1532510882366211
C    0.7691829801020265 -0.31038832988516807 1.4002839109623075
N    0.18331917793985142 -0.04594897841193905 0.15244897183453207
N    -3.2562937223168262 1.0644373260437165 0.8306490528408257
H    -1.0697696989997647 0.9640990346101302 -1.0236117654917518
H    -1.5427301005761185 -1.2888227588003396 -1.4819038713199333
H    -2.251079129929634 -1.4656239967201012 0.12846153501607963
H    -3.1342683413306456 0.3674162881057789 -2.0697107374976755
H    -4.058838811998953 -0.9347942124569177 -1.5569357799980674
H    -3.731032200211384 1.4437425632230212 1.6148327338693518
H    3.8674804766308877 -0.20351515078659776 -1.7845316059420535
H    5.773020384239177 -0.30359086563736976 -0.2155649915729394
H    5.3916074679734844 -0.3746159905426005 2.1920032565016085
H    3.093566635249351 -0.4120109521488241 3.0986411049843583
29

O    0.8992679433330858 -0.006911577126252165 -2.0153868748364396
O    -1.3303944612321081 1.5084532286344217 1.8532001798150477
O    -5.23905318469924 0.6728187216435324 -0.12380801560977397
O    0.2145314402361816 -0.5097744613837939 2.4176233913759226
C    1.1337547056675563 -0.08112457890828696 -0.8544053410684874
C    -1.1849107623318504 0.31279545951859045 -0.18931893945779177
C    -2.0539004751688568 -0.802713114582931 -0.6818215513243199
C    -3.34798921202057 -0.22803222462912295 -1.2087171522859024
C    -4.059025281136442 0.55116129579411 -0.1602931550843393
C    -1.8862074278788503 1.046940898904138 0.9234587312277054
C    2.444282047431685 -0.23450075828425712 -0.19710546862872208
C    3.7085494745019 -0.25236180650755957 -0.7251048752869333
C    4.770152393252756 -0.3064081803672189 0.15920545116845872
C    4.552523411856105 -0.34760538805748503 1.5252507149985735
C    3.2697215910620643 -0.36274741235854785 2.0419746498803395
C    2.2292359724380177 -0.31031777894902995 1.1531428775462078
C    0.7690869737251503 -0.30899285076142197 1.4006003919758006
N    0.18294254283855169 -0.04524251208878985 0.15280765871531315
N    -3.257511483087352 1.0622201365288633 0.8318834968862363
H    -1.070160188094981 0.965371875474197 -1.0223460413352001
H    -1.542341400964409 -1.2858734881411498 -1.483581742719303
H    -2.2512677786797632 -1.465093928306618 0.12624365762158904
H    -3.133850858065421 0.37013260375532775 -2.06960180310535
H    -4.058446595455526 -0.9323785623889291 -1.5592443226914208
H    -3.732567312724964 1.4389806722361638 1.616977041003397
H    3.8675116054805128 -0.20858064319155187 -1.7836288223576422
H    5.77422282466042 -0.307584871604767 -0.2163279412657621
H    5.391837691723868 -0.3726482984618088 2.191714687493169
H    3.094259752403657 -0.406466698281319 3.097688375929703
29

O    0.899364199064336 -0.005590665537639758 -2.0155103583686107
O    -1.329711189932285 1.5106580370115423 1.8516122161788298
O    -5.238840241188669 0.6736209416273804 -0.12369752977218006
O    0.21431859456103122 -0.5112062167414135 2.417141147828042
C    1.13387810516991 -0.08112496347467078 -0.8546186646591455
C    -1.184826408219248 0.3124174016835758 -0.18962241480215475
C    -2.0541345918310743 -0.8033642880030486 -0.6810333381976269
C    -3.348276348618724 -0.22892561692880545 -1.208106368573446
C    -4.058863849684892 0.5514819777712534 -0.1602523701494414
C    -1.885698026718753 1.047700910278836 0.922691685417896
C    2.4443643667864667 -0.2341645141804987 -0.1971327482571403
C    3.7086498910349275 -0.25070539220506777 -0.7251445407703943
C    4.769972537863645 -0.305085913595318 0.15948657242550907
C    4.5523323517585155 -0.34833469547181645 1.5254722058555374
C    3.2694909939813637 -0.36474533461645653 2.0420656150437413
C    2.2292112936312796 -0.3112933097029204 1.153040104977942
C    0.7690217747903131 -0.3097573362930221 1.4003297763144813
N    0.18300898495216686 -0.0456389687246948 0.1525501366283869
N    -3.2570021868633994 1.0634284895675603 0.8311927502414651
H    -1.0701018451235764 0.9644192897830379 -1.0231251423888623
H    -1.5428574854587067 -1.2873770702155625 -1.4824784018945176
H    -2.251416954028372 -1.4651018078968006 0.1276020778327333
H    -3.1342747750470052 0.36846526463789103 -2.0695812538993397
H    -4.05892030840536 -0.9335452791132467 -1.5577609346247219
H    -3.7318153648377703 1.4416289921217071 1.6157490571765223
H    3.867771713279383 -0.20565430180082292 -1.7836007313069875
H    5.774115560578828 -0.30526946229679924 -0.21587084579748475
H    5.391619104627173 -0.37378391109190573 2.191968372808928
H    3.093874053438608 -0.4096364985795937 3.097713183383949
29

O    0.8974566635606992 -0.005205718178692324 -2.0145424520643864
O    -1.3312999983671303 1.5113928608807459 1.852392349476123
O    -5.238608870053324 0.6737742364337427 -0.1253084749708287
O    0.21540688258048127 -0.5118376282723563 2.418416060788323
C    1.133300687575259 -0.08099122845615493 -0.8539303072221291
C    -1.1845749610934682 0.31248867341541103 -0.1889071139113075
C    -2.0536170588616973 -0.8033593895570484 -0.6806422013037436
C    -3.3474323763805893 -0.22903727847419772 -1.2085641630967185
C    -4.058626134639005 0.5515364745039396 -0.16129608858023106
C    -1.8860504573351309 1.0480236605496693 0.9229488285165605
C    2.443935900372521 -0.23413917225170316 -0.19678391702275425
C    3.7077099669733222 -0.2504988173627194 -0.7259084726229594
C    4.7689015448342 -0.30500564325007623 0.15883598162460252
C    4.552435840300494 -0.3485259766794728 1.5250137725757045
C    3.2699898114119748 -0.3651017177875431 2.042465038630637
C    2.2296289641648244 -0.31152381292583375 1.1535499026608556
C    0.7695669958787698 -0.31010653008941813 1.4013785018742573
N    0.18311336064475708 -0.04574567352131882 0.15381664367157646
N    -3.2572715676927846 1.063618087223858 0.8304612046003955
H    -1.0693958512051507 0.9643615521691974 -1.022419144104498
H    -1.5419296499416966 -1.2874713270484348 -1.4817470282029352
H    -2.2513264234320807 -1.4649309831450568 0.12798630031275118
H    -3.1329082589410104 0.3681444970257816 -2.0700174103538074
H    -4.057875173693793 -0.933680719299875 -1.5585183690375137
H    -3.7325776727446653 1.441922448684533 1.6146660437390936
H    3.8664143369052066 -0.20525676678444768 -1.7844251161230433
H    5.772868890328604 -0.3050770902164417 -0.21690865840352844
H    5.392201002079305 -0.3740536300415995 2.1908910072729144
H    3.094817556293788 -0.41019762956963335 3.0981765398563375
29

O    0.8975054507264685 -0.006096050582594888 -2.0151703906282936
O    -1.3306630382182962 1.5092820151621766 1.8533845460210263
O    -5.238306679226208 0.6742694172785031 -0.12467979882566559
O    0.21490714569234426 -0.5105922191295481 2.417637545610663
C    1.13370001945451 -0.08187535720003405 -0.8546125289912357
C    -1.184598675185895 0.31211253649172194 -0.1891624911942954
C    -2.053779025115293 -0.8036838440788916 -0.681164788473272
C    -3.347545658128539 -0.22869886394970684 -1.2085838172301229
C    -4.058351058342714 0.5517239561994712 -0.16080873704055348
C    -1.885585233983213 1.0469010397106597 0.9235156062939035
C    2.4442169412071686 -0.2343423527597522 -0.1970368750957167
C    3.7079131558187766 -0.25035612484483455 -0.7264252308245064
C    4.768428350685193 -0.30433079185168965 0.1592035448446226
C    4.552077830805894 -0.34785347972375935 1.5254431142162812
C    3.2696358897245057 -0.36470526380843726 2.0429535521949576
C    2.229813536475496 -0.3113423258895223 1.1533340151002323
C    0.769637374202055 -0.3096408692464859 1.4007543655768127
N    0.18327284799117238 -0.046035499300270316 0.15295054269062058
N    -3.2568414668663874 1.0630214024197768 0.8312850157112358
H    -1.0697235990329403 0.9644617204241632 -1.0224120944217663
H    -1.542381992275689 -1.2875851926274289 -1.4826557616938765
H    -2.2514440410941954 -1.465600498952093 0.12728072738470086
H    -3.132962544822797 0.368818654488433 -2.069857031022759
H    -4.058230840243702 -0.93307920596252 -1.5588483583322272
H    -3.731944160558651 1.4408127896200362 1.6159244184826451
H    3.8669160011214174 -0.20532766623082002 -1.7849450868300631
H    5.7725350321254485 -0.3041981167392203 -0.21622181030152823
H    5.391879513464285 -0.3730175897574186 2.191332474379937
H    3.0941728730366376 -0.4095264613256839 3.098664590885112
29

O    0.8972766256401399 -0.00504201760597687 -2.014474962193959
O    -1.3321450475033227 1.5105399954787888 1.8535419418665224
O    -5.238613465293209 0.6741251590359555 -0.12615291314507399
O    0.2156303230659563 -0.5121032395726995 2.4183159757176043
C    1.1333558953963387 -0.0812327824376266 -0.8539189669458529
C    -1.1848401515381488 0.31220161962715154 -0.18842445497853283
C    -2.05372054259215 -0.8038272377933917 -0.6804536663208568
C    -3.3472546312008746 -0.2291506524259597 -1.2087489045703337
C    -4.058631420833902 0.5516166876535612 -0.16163301473725034
C    -1.8864026239800067 1.0473364187495957 0.9236874806999872
C    2.4441185904669296 -0.2338086778574916 -0.1968829187933494
C    3.7078680135270394 -0.2495578495717558 -0.7262053937329626
C    4.769039364891475 -0.3040630372424366 0.15861382895130474
C    4.552645832212854 -0.3483259053729478 1.5248067230309348
C    3.270231508885925 -0.36535201615035895 2.0424373345684352
C    2.2299068531332575 -0.3114708290504159 1.1534454624604251
C    0.7698121033339566 -0.3099833157827524 1.4013692104766413
N    0.18307125897658116 -0.04587218376348726 0.15382145394796964
N    -3.2576214999369153 1.0633372207451162 0.8306385333060372
H    -1.0698294664917454 0.9643322845990546 -1.0218063467264662
H    -1.541914326172461 -1.2879584764977035 -1.4815361695614433
H    -2.2517407211688756 -1.4654304552064976 0.12814512052024732
H    -3.132249365890252 0.3679807328288159 -2.0701701805925943
H    -4.057731849439663 -0.9336850361560005 -1.5591260382093721
H    -3.7331476986557433 1.4414117304642906 1.6148887678449826
H    3.866526437023312 -0.20402145828073406 -1.784740370626916
H    5.773028820406917 -0.30378804288057715 -0.21714844864483646
H    5.392486044192024 -0.3739303164639212 2.1906220862360084
H    3.095099088504737 -0.41076256135523337 3.0981680887002963
29

O    0.8962660193321296 -0.004820214333749265 -2.0136966096111
O    -1.333229857908837 1.5094748095798038 1.8545737997008935
O    -5.238890492711105 0.6728321651035823 -0.1271443446830308
O    0.2163684604332764 -0.5112973542768868 2.4196972082901116
C    1.1327914828651928 -0.08029936016866344 -0.8531879450321496
C    -1.1847463498513195 0.3126232201813477 -0.18772941607025045
C    -2.0530676434050923 -0.8032758641054775 -0.6807527365575744
C    -3.3465534697125165 -0.22888091879190478 -1.2094545306637474
C    -4.058849173069508 0.5508258615176375 -0.16225566343858583
C    -1.8872257538831383 1.0469429673180934 0.924252326047322
C    2.4436572716846046 -0.23368476886770864 -0.19658981677299975
C    3.7071778019049253 -0.2505775684128285 -0.7263584041198494
C    4.768729571878708 -0.30512228865227625 0.15796552431421862
C    4.553071992908462 -0.34804617753680334 1.52429546676356
C    3.270806913732521 -0.36410985198022383 2.0422533096411173
C    2.229979137102356 -0.3107249930162955 1.153851844001163
C    0.7700392285413137 -0.3095690952576368 1.4023998010006016
N    0.18305318411186564 -0.045308884777073725 0.15502306370214153
N    -3.2584120904268565 1.0622966096584592 0.8305696352998783
H    -1.0695998962839626 0.965123864317694 -1.0207553665913125
H    -1.5405871207630035 -1.2867863286253713 -1.481726519261404
H    -2.2513456679651838 -1.4652888557054475 0.12738311430517713
H    -3.131358140639326 0.36880790478078646 -2.0704034362419055
H    -4.056589212132566 -0.93341842208183 -1.5605530320589065
H    -3.7344248795820634 1.4396227177624015 1.6148488994110057
H    3.8654056220753175 -0.20567067648586745 -1.7849619109844195
H    5.77251250226031 -0.30559295515280877 -0.21829414774188977
H    5.393162040182361 -0.3736179643310295 2.1897730261120625
H    3.096112468577692 -0.40894182020456055 3.098056119550005
29

O    0.8966286667777068 -0.005025292341123237 -2.013924102395919
O    -1.3333608234181022 1.5090382500087802 1.8549579845217188
O    -5.238789937140218 0.6732373223244007 -0.12712462710487332
O    0.2164524530961959 -0.5114640542044774 2.419360105625826
C    1.1329742034014603 -0.08090200676603765 -0.853402099823531
C    -1.1848577507375582 0.3122559631121735 -0.1877545626211585
C    -2.053295880345097 -0.8036399842952551 -0.6807110970769928
C    -3.3466976329518534 -0.22901455994175046 -1.2093724234196987
C    -4.058776682971528 0.550936714691071 -0.16217153362484818
C    -1.887094135024092 1.0465226732945336 0.924463032130379
C    2.4438689778808005 -0.2336565580816626 -0.1967146013625593
C    3.707417294112488 -0.24978946935230362 -0.7264587150173227
C    4.768854640912527 -0.3040884540460927 0.15802177846942927
C    4.552892103489204 -0.34770834702940423 1.5242932179523787
C    3.2706911230117006 -0.3644992038008021 2.0423988469271426
C    2.230110556948542 -0.3109928000788991 1.1537033043130211
C    0.7701151224216837 -0.309757494474043 1.4020610344147364
N    0.18305160157520095 -0.045679653955987075 0.15465724718579502
N    -3.2582759288243235 1.0622393072899963 0.8307100285672168
H    -1.0698729857657931 0.9648420139025237 -1.0207391594313047
H    -1.5409576799045581 -1.287273754646534 -1.4817257253764093
H    -2.251608663948295 -1.4656015158130786 0.1274722180672154
H    -3.131400782863048 0.3685969757317237 -2.0703535873744583
H    -4.056875974975663 -0.9334466676580493 -1.5604645944919888
H    -3.7342371967149126 1.4396901857356668 1.614988864584105
H    3.8657243122126075 -0.20456067608583398 -1.7850470726910523
H    5.772712044016752 -0.30400746359498126 -0.2180591791833188
H    5.392947651112416 -0.3731270583424177 2.1898245420679023
H    3.0959152538461634 -0.4096086342083115 3.098190134517478
29

O    0.8978968925804365 -0.004415220575889363 -2.01557189387532
O    -1.3296447892106307 1.5127946644608603 1.8510166950777862
O    -5.238351847379031 0.6743372360138964 -0.1236294917188914
O    0.2140844873233991 -0.5123155634272559 2.4168128697245432
C    1.1338891594042833 -0.0810776952352344 -0.8550270650348682
C    -1.1844589372353407 0.31219935778175834 -0.18978927201063903
C    -2.0538814739829774 -0.8040989357741138 -0.68060731692787
C    -3.3481112458063187 -0.22969916344391156 -1.2078089942937762
C    -4.058413492866023 0.5517527810576307 -0.16031696615776136
C    -1.884967042322358 1.0484816660653522 0.922318902712352
C    2.44430197121467 -0.2339593055225387 -0.19706186599983086
C    3.7082563613758484 -0.24949006123667025 -0.7260323578475466
C    4.768765906613943 -0.30413198039453077 0.15966201039232242
C    4.5519544900609885 -0.34889728413365095 1.525846038187413
C    3.269280775904773 -0.3662740390580791 2.0429550641005902
C    2.229487617792641 -0.3120746752909339 1.1532510882366211
C    0.7691829801020265 -0.31038832988516807 1.4002839109623075
N    0.18331917793985142 -0.04594897841193905 0.15244897183453207
N    -3.2562937223168262 1.0644373260437165 0.8306490528408257
H    -1.0697696989997647 0.9640990346101302 -1.0236117654917518
H    -1.5427301005761185 -1.2888227588003396 -1.4819038713199333
H    -2.251079129929634 -1.4656239967201012 0.12846153501607963
H    -3.1342683413306456 0.3674162881057789 -2.0697107374976755
H    -4.058838811998953 -0.9347942124569177 -1.5569357799980674
H    -3.731032200211384 1.4437425632230212 1.6148327338693518
H    3.8674804766308877 -0.20351515078659776 -1.7845316059420535
H    5.773020384239177 -0.30359086563736976 -0.2155649915729394
H    5.3916074679734844 -0.3746159905426005 2.1920032565016085
H    3.093566635249351 -0.4120109521488241 3.0986411049843583
29

O    0.8992679433347693 -0.006911577127651069 -2.0153868748376467
O    -1.3303944612296208 1.5084532286341896 1.853200179813387
O    -5.239053184698 0.6728187216465094 -0.12380801561038296
O    0.21453144023678855 -0.5097744613848727 2.4176233913747778
C    1.1337547056687716 -0.08112457890978782 -0.8544053410695901
C    -1.1849107623307762 0.31279545951789084 -0.1893189394592751
C    -2.053900475169013 -0.8027131145828297 -0.6818215513256574
C    -3.347989212020512 -0.22803222462817144 -1.2087171522870512
C    -4.059025281135325 0.5511612957960257 -0.16029315508545772
C    -1.8862074278769398 1.046940898904302 0.9234587312262226
C    2.4442820474326377 -0.23450075828515765 -0.19710546862912454
C    3.7085494745030627 -0.25236180650756557 -0.7251048752867205
C    4.770152393253676 -0.3064081803666407 0.15920545116898627
C    4.55252341185644 -0.34760538805782926 1.5252507149990149
C    3.269721591062164 -0.3627474123600685 2.041974649880364
C    2.229235972438542 -0.31031777895047336 1.1531428775457202
C    0.7690869737255839 -0.3089928507627454 1.4006003919745482
N    0.18294254283939776 -0.045242512090154174 0.15280765871388122
N    -3.2575114830854037 1.0622201365302768 0.8318834968847175
H    -1.0701601880933558 0.9653718754731812 -1.0223460413368353
H    -1.5423414009652574 -1.2858734881416285 -1.48358174272069
H    -2.2512677786803534 -1.4650939283060116 0.12624365762050296
H    -3.133850858065217 0.37013260375572954 -2.06960180310677
H    -4.058446595456214 -0.9323785623875475 -1.559244322692025
H    -3.7325673127226104 1.4389806722381613 1.6169770410018787
H    3.867511605481846 -0.20858064319105038 -1.783628822357321
H    5.774222824661492 -0.30758487160310743 -0.21632794126496988
H    5.391837691723953 -0.3726482984618188 2.1917146874938487
H    3.094259752403119 -0.4064666982835111 3.097688375929674
29

O    0.8993641990654365 -0.005590665538244417 -2.0155103583694367
O    -1.3297111899307128 1.5106580370114246 1.8516122161777855
O    -5.238840241187974 0.6736209416290241 -0.12369752977226135
O    0.21431859456150384 -0.5112062167419803 2.4171411478272753
C    1.1338781051707105 -0.08112496347539282 -0.8546186646599025
C    -1.1848264082186017 0.3124174016831756 -0.18962241480311914
C    -2.0541345918311995 -0.8033642880029805 -0.6810333381984903
C    -3.3482763486188074 -0.2289256169282962 -1.2081063685741145
C    -4.058863849684275 0.5514819777722627 -0.16025237014997895
C    -1.8856980267175592 1.047700910278891 0.9226916854170204
C    2.4443643667870574 -0.23416451418094808 -0.1971327482573771
C    3.708649891035638 -0.2507053922050941 -0.7251445407702279
C    4.769972537864175 -0.3050859135951098 0.15948657242589703
C    4.552332351758682 -0.3483346954720749 1.5254722058558867
C    3.2694909939813663 -0.3647453346172519 2.042065615043856
C    2.2292112936316055 -0.31129330970363633 1.153040104977662
C    0.7690217747905762 -0.30975733629364455 1.4003297763136235
N    0.18300898495271248 -0.0456389687253457 0.15255013662741043
N    -3.2570021868621817 1.0634284895682569 0.8311927502406198
H    -1.0701018451226822 0.9644192897824768 -1.0231251423899037
H    -1.542857485459301 -1.2873770702158163 -1.48247840189545
H    -2.2514169540286795 -1.4651018078964297 0.12760207783202562
H    -3.1342747750470994 0.3684652646381172 -2.069581253900143
H    -4.058920308405883 -0.9335452791125163 -1.5577609346250476
H    -3.7318153648362866 1.4416289921227399 1.6157490571757105
H    3.8677717132801765 -0.20565430180058958 -1.7836007313067426
H    5.774115560579459 -0.305269462296107 -0.21587084579695107
H    5.391619104627181 -0.37378391109203546 2.191968372809403
H    3.0938740534381397 -0.4096364985806942 3.0977131833840468
29

O    0.8974566635645695 -0.005205718176280598 -2.0145424520629116
O    -1.331299998370754 1.5113928608842266 1.852392349476351
O    -5.23860887006123 0.67377423643692 -0.12530847496715478
O    0.21540688257154234 -0.5118376282645511 2.418416060789311
C    1.1333006875730496 -0.08099122845388106 -0.8539303072194048
C    -1.1845749610986562 0.31248867341888853 -0.18890711391081247
C    -2.0536170588674416 -0.803359389554224 -0.6806422013024258
C    -3.34743237638788 -0.22903727847204847 -1.208564163094235
C    -4.058626134646562 0.551536474506893 -0.16129608857765612
C    -1.8860504573405295 1.0480236605531499 0.9229488285176054
C    2.4439359003702203 -0.23413917224978262 -0.1967839170197693
C    3.7077099669732148 -0.2504988173617373 -0.7259084726152969
C    4.768901544838342 -0.30500564325007423 0.15883598162735602
C    4.55243584029949 -0.3485259766802243 1.5250137725778088
C    3.2699898114094292 -0.3651017177874463 2.042465038630062
C    2.2296289641594305 -0.31152381292402237 1.153549902663265
C    0.769566995872425 -0.31010653008461886 1.4013785018760376
N    0.1831133606399364 -0.04574567351759506 0.15381664367219508
N    -3.257271567698682 1.0636180872274998 0.8304612046018459
H    -1.069395851210704 0.9643615521731076 -1.0224191441041799
H    -1.5419296499477937 -1.2874713270460085 -1.4817470282019933
H    -2.251326423436554 -1.4649309831427855 0.12798630031435398
H    -3.1329082589495716 0.36814449702848345 -2.0700174103516344
H    -4.057875173700506 -0.9336807192993827 -1.5585183690339632
H    -3.732577672749842 1.4419224486895477 1.6146660437404279
H    3.8664143369047457 -0.20525676678316732 -1.784425116115542
H    5.772868890332878 -0.3050770902170061 -0.21690865840127757
H    5.392201002076839 -0.37405363004346764 2.190891007277029
H    3.094817556291364 -0.410197629569774 3.0981765398559302
29

O    0.8975054507088831 -0.006096050565367404 -2.0151703905738447
O    -1.3306630382515108 1.509282015179562 1.8533845460749292
O    -5.238306679239545 0.6742694172821391 -0.12467979881746244
O    0.21490714570799263 -0.5105922190647335 2.417637545680113
C    1.1337000194459976 -0.08187535717545856 -0.8546125289380646
C    -1.1845986751910753 0.31211253651988424 -0.18916249114355588
C    -2.0537790251113335 -0.8036838440521837 -0.6811647884379025
C    -3.347545658123474 -0.22869886392775177 -1.2085838172052212
C    -4.058351058354179 0.5517239562112034 -0.16080873701864884
C    -1.8855852340061912 1.046901039729918 0.923515606340534
C    2.444216941201761 -0.23434235274410653 -0.19703687505027725
C    3.707913155807715 -0.25035612484592024 -0.7264252307929594
C    4.768428350676109 -0.304330791857051 0.15920354487341346
C    4.552077830811537 -0.3478534797161806 1.5254431142478677
C    3.269635889734305 -0.36470526378334106 2.042953552237652
C    2.229813536479675 -0.3113423258603099 1.1533340151485356
C    0.7696373742066933 -0.30964086920077905 1.400754365635987
N    0.18327284798781324 -0.04603549926657914 0.1529505427490201
N    -3.256841466889887 1.0630214024304945 0.8312850157443993
H    -1.0697235990345906 0.9644617204552155 -1.0224120943684962
H    -1.542381992261577 -1.2875851925928548 -1.4826557616571274
H    -2.251444041094291 -1.465600498932257 0.1272807274133866
H    -3.1329625448124245 0.36881865451694895 -2.0698570309921105
H    -4.058230840229816 -0.9330792059434438 -1.5588483583197656
H    -3.7319441605921235 1.4408127896233995 1.6159244185131214
H    3.866916001103179 -0.20532766624174548 -1.7849450868002898
H    5.772535032113513 -0.3041981167580462 -0.21622181028045231
H    5.391879513476317 -0.3730175897551077 2.191332474403254
H    3.0941728730544336 -0.4095264612925481 3.098664590929389
29

O    0.8972766256347083 -0.005042017582423658 -2.014474962129698
O    -1.332145047530117 1.5105399955062944 1.853541941934123
O    -5.2386134652943745 0.6741251590537353 -0.12615291312879864
O    0.21563032309747165 -0.5121032394983825 2.4183159757998687
C    1.1333558953973648 -0.08123278240720942 -0.8539189668822952
C    -1.1848401515336584 0.31220161966359367 -0.1884244549150327
C    -2.0537205425786937 -0.8038272377575203 -0.6804536662730984
C    -3.347254631184562 -0.2291506523940842 -1.208748904534965
C    -4.058631420833783 0.5516166876763188 -0.16163301470620903
C    -1.8864026239929166 1.0473364187775926 0.9236874807590293
C    2.4441185904717173 -0.2338086778331032 -0.19688291873916902
C    3.707868013526473 -0.2495578495617409 -0.7262053936919497
C    4.769039364894557 -0.3040630372337451 0.1586138289874399
C    4.552645832228762 -0.34832590535295765 1.5248067230692788
C    3.2702315089067757 -0.36535201611578927 2.0424373346192093
C    2.2299068531485933 -0.31147082901272843 1.1534454625171364
C    0.7698121033506499 -0.3099833157283465 1.401369210546385
N    0.18307125898322912 -0.045872183722036365 0.15382145401759012
N    -3.257621499949924 1.0633372207656937 0.8306385333493275
H    -1.069829466483708 0.9643322846377137 -1.021806346660349
H    -1.541914326148984 -1.2879584764544436 -1.4815361695117177
H    -2.2517407211610574 -1.4654304551764883 0.12814512056118835
H    -3.132249365866802 0.36798073286560345 -2.0701701805516306
H    -4.057731849415251 -0.933685036125443 -1.5591260381868755
H    -3.7331476986796366 1.441411730478246 1.6148887678845822
H    3.8665264370145933 -0.20402145828076995 -1.784740370587555
H    5.773028820406966 -0.3037880428829142 -0.21714844861651972
H    5.392486044213857 -0.37393031644783675 2.190622086266304
H    3.0950990885340572 -0.4107625613133867 3.0981680887525793
29

O    0.8962660193475297 -0.004820214362505236 -2.013696609508478
O    -1.3332298578717146 1.5094748095397894 1.8545737998229341
O    -5.238890492638961 0.6728321652441348 -0.12714434468238978
O    0.21636846048481012 -0.5112973543143121 2.4196972083995396
C    1.1327914828935879 -0.08029936020483884 -0.8531879449325168
C    -1.1847463498043092 0.3126232201653644 -0.18772941596907639
C    -2.053067643376886 -0.8032758640974804 -0.6807527364790276
C    -3.3465534696516075 -0.22888091873757957 -1.2094545306135644
C    -4.058849173003128 0.5508258616007395 -0.1622556634062994
C    -1.887225753831235 1.0469429673087958 0.9242523261454435
C    2.443657271719528 -0.2336847688717371 -0.1965898166839905
C    3.707177801935773 -0.250577568379138 -0.7263584040413748
C    4.76872957192586 -0.3051222885832273 0.15796552437500697
C    4.553071992961856 -0.3480461774742486 1.5242954668254332
C    3.2708069137914753 -0.36410985196066287 2.0422533097161106
C    2.229979137147463 -0.3107249930260947 1.1538518440908603
C    0.7700392285886108 -0.30956909529460713 1.4023998011074879
N    0.18305318415059513 -0.0453088848146362 0.1550230638118084
N    -3.258412090370583 1.062296609702281 0.8305696353593733
H    -1.0695998962127395 0.96512386430699 -1.0207553664825515
H    -1.54058712073448 -1.2867863286295527 -1.4817265191754292
H    -2.2513456679745065 -1.4652888556948749 0.1273831143764959
H    -3.131358140535112 0.36880790482703113 -2.0704034361861927
H    -4.0565892120895795 -0.9334184220001969 -1.5605530320279768
H    -3.7344248795343225 1.4396227178217074 1.614848899458296
H    3.865405622090532 -0.20567067644704265 -1.7849619109081385
H    5.772512502303445 -0.305592955050669 -0.21829414769188626
H    5.393162040241054 -0.3736179642374037 2.189773026168024
H    3.09611246864986 -0.4089418201853128 3.0980561196269973
29

O    0.8966286668307252 -0.00502529228886437 -2.013924102305069
O    -1.3333608234205347 1.509038250015544 1.85495798464978
O    -5.238789937101247 0.6732373223229667 -0.12712462705672367
O    0.21645245317746667 -0.511464054149424 2.419360105724636
C    1.1329742034534094 -0.08090200670906053 -0.8534020997317476
C    -1.1848577506941684 0.3122559631562768 -0.18775456251956626
C    -2.0532958802851495 -0.8036399842583064 -0.6807110969932733
C    -3.346697632892044 -0.22901455991677877 -1.209372423348694
C    -4.058776682930347 0.5509367147059441 -0.1621715335599986
C    -1.887094135001053 1.0465226733132795 0.9244630322370453
C    2.443868977935633 -0.23365655803756039 -0.1967146012800036
C    3.707417294163812 -0.24978946932926996 -0.7264587149426185
C    4.7688546409643005 -0.3040884540497179 0.158021778542503
C    4.552892103554617 -0.34770834702717507 1.5242932180282438
C    3.2706911230786138 -0.36449920376815 2.0423988470074987
C    2.2301105570126283 -0.3109928000306501 1.1537033043968066
C    0.7701151224863584 -0.3097574944119834 1.4020610345061442
N    0.18305160162667106 -0.04567965389997505 0.15465724727992347
N    -3.2582759288004643 1.0622393072996321 0.8307100286487907
H    -1.0698729857311062 0.9648420139586673 -1.0207391593211483
H    -1.5409576798317552 -1.2872737545992774 -1.4817257252905203
H    -2.251608663891594 -1.4656015157831284 0.12747221814437196
H    -3.1314007828000516 0.3685969757601595 -2.0703535873002297
H    -4.0568759749055285 -0.9334466676397655 -1.5604645944309836
H    -3.7342371967065193 1.4396901857336837 1.614988864662098
H    3.865724312259287 -0.2045606760687707 -1.7850470726175292
H    5.772712044065984 -0.30400746362369974 -0.2180591791166672
H    5.392947651181444 -0.3731270583584896 2.1898245421386213
H    3.0959152539162735 -0.40960863417163274 3.0981901345985072
