29

O    0.6838107812852512 0.2485872060927297 -1.8174710405258994
O    -1.9995917253326112 0.7337935162305352 2.33477008631302
O    -5.248471519789956 0.10413828428451373 -0.6343869366013472
O    0.49273203339190935 -0.09967566450577754 2.705291702929429
C    1.019963346158369 0.17000044043937673 -0.6818418548413837
C    -1.2760799784606438 0.21460592749632246 0.0815791082222041
C    -1.822088874095189 -0.9696182553198498 -0.6601629812747435
C    -3.099200041326133 -0.5613537910802319 -1.3580788699942403
C    -4.083812923510744 0.035658509378369986 -0.4128728379559571
C    -2.246384573270415 0.5077652368590564 1.206668616115465
C    2.391901081520251 0.11109806071455781 -0.1593604278805036
C    3.5970088822570894 0.12048608519284211 -0.8127811564006452
C    4.740027074646775 0.09278305204085797 -0.03793513442224738
C    4.660412606610958 0.06090578127013244 1.3441005559843169
C    3.4371736433085194 0.03690419855942347 1.9860220490237344
C    2.3138724096722236 0.054447468405400636 1.201864396569543
C    0.8889469435493728 0.010058012711962128 1.6059538510533702
N    0.1531959848101133 0.11377059241350525 0.40605981303743494
N    -3.563599047502028 0.44293812152192247 0.7913898469984718
H    -1.3294841154435726 1.0143789258261233 -0.6058850231152663
H    -1.1207463572418737 -1.274513295204311 -1.4047497515319995
H    -2.002798473919232 -1.7429583898364862 0.037571678649325264
H    -2.861368688418945 0.11114646311429678 -2.1487872147526135
H    -3.618203238303509 -1.3378494569882275 -1.850787845144961
H    -4.230843710330074 0.6480402268283194 1.500891740351638
H    3.6479300680569233 0.15296515422848336 -1.881937907375477
H    5.7015233596868296 0.10098716625942006 -0.510780374234512
H    5.562154228971089 0.05059230731098281 1.9229621371664902
H    3.366274804240032 0.0034338596834781175 3.053773025629124
29

O    0.6818913105245684 0.24802823912600644 -1.8163232520174886
O    -2.0002567942983713 0.729849955117301 2.3357651945024487
O    -5.247680230753102 0.10226882770084625 -0.6359807964461376
O    0.4920499504001931 -0.09558977464001685 2.706524427461333
C    1.0191661313129583 0.1715404468448664 -0.6809044420586022
C    -1.2761727419360054 0.21516456121917213 0.0825026852459078
C    -1.8207361974875345 -0.9685863649619615 -0.6605635221550401
C    -3.0976355375526166 -0.5606019031215301 -1.358719506170007
C    -4.083197542175141 0.03450652916630318 -0.4134395525021962
C    -2.2473433222157975 0.5056712178334807 1.2073918738569
C    2.3911190113566425 0.11148690215116892 -0.15895600621452263
C    3.5959228011535984 0.11845760655758432 -0.812816622021604
C    4.739346268630518 0.09088546523099274 -0.03869920819917039
C    4.66063531057811 0.06112859540182637 1.3433471454049917
C    3.4374639000004192 0.03886206701192747 1.9853075009140313
C    2.3135083714964724 0.056453850872433736 1.202250343216135
C    0.8889009777648466 0.013007283974518297 1.6073112848209063
N    0.15304899612739592 0.1154890738385756 0.4074466160424406
N    -3.5644369336274315 0.44054916855528675 0.7918171610167938
H    -1.3300266966699459 1.0152724210782806 -0.60424546096839
H    -1.1188405155951544 -1.2719125550846881 -1.4051058828295864
H    -2.0011880289491493 -1.7425698185555458 0.036221826832934435
H    -2.8597080452691666 0.11257322681814894 -2.1485855485321084
H    -3.615826862160443 -1.3366246038622513 -1.8525921947963693
H    -4.232180453744961 0.6437803385060298 1.5013331348454146
H    3.646356634061637 0.14961810749682536 -1.8819609612497903
H    5.700476212265579 0.09756213256498289 -0.5121350943701567
H    5.562525312794748 0.05060967802539882 1.921845303045693
H    3.3670726962670514 0.006635068833016066 3.053042806235936
29

O    0.6825904927686987 0.2489898650652578 -1.8162108186278965
O    -2.0017092499677482 0.7306702268752525 2.335822133400432
O    -5.247583409704128 0.1039352496682295 -0.6369241815320978
O    0.49357648869758225 -0.09760836530859048 2.706687734992766
C    1.019296289203782 0.17096507650575957 -0.6807303812202141
C    -1.2762870382461846 0.2143028147042042 0.08273369419298816
C    -1.8213161422623714 -0.9696906769882565 -0.6596691385195962
C    -3.0977356493408874 -0.5615019928621349 -1.3585213454287428
C    -4.083213339256694 0.035071936019598196 -0.4141220702458898
C    -2.2475880829407737 0.5057755711620384 1.2073377645857946
C    2.3913230344384826 0.11169841422688466 -0.1589545480546261
C    3.5960095143180264 0.1204191087134752 -0.8129627757331327
C    4.7394397305520855 0.09299578563584505 -0.038889426072436256
C    4.660561650463861 0.061563501442748206 1.3430949795556155
C    3.4376771245167115 0.03774404782951803 1.985499289853967
C    2.3139155979292605 0.05548334560011148 1.2022025741837907
C    0.889334297857435 0.011531961489347636 1.6071523714756633
N    0.15305687357221778 0.11430542450209245 0.40752079310780354
N    -3.5644527915650888 0.4414576458815052 0.790986124651991
H    -1.3298525534194114 1.0140895620669315 -0.6043290743135796
H    -1.1195364696587202 -1.2740130111960544 -1.4038538014224347
H    -2.0023691320157595 -1.7429899285826458 0.03763562861723601
H    -2.8590612448952943 0.11072445761838302 -2.14889162319399
H    -3.6162917752975994 -1.3375276623095247 -1.851929581296534
H    -4.232337529738702 0.64579250225825 1.5000492808882195
H    3.6463468867954365 0.1526725910036899 -1.8820648122142167
H    5.700569331665402 0.10096832676649159 -0.5122686545403785
H    5.562498561717579 0.05115889895344032 1.921475272266236
H    3.367392516371527 0.004531066914986343 3.0532038443014695
29

O    0.6847403193889277 0.24952788999305622 -1.818119179788184
O    -1.9990346172903783 0.7290246230137027 2.3355799404940933
O    -5.24838746908249 0.10278967514519685 -0.6341301875095623
O    0.4922954013740861 -0.09644753772755178 2.7045847833592935
C    1.0204127760236696 0.17067911346487924 -0.6823751808532903
C    -1.2763218596053152 0.21414195796142346 0.08137567188542087
C    -1.8218920279573694 -0.9700611390213651 -0.6606257896919357
C    -3.0992023177757826 -0.5619678006476346 -1.3580774133282119
C    -4.083740472428585 0.03444713444669961 -0.4125235973118883
C    -2.246357077862375 0.5051526865605893 1.2071720413598275
C    2.392149127457805 0.11212147726935225 -0.15963189574192604
C    3.597331470931103 0.12152946999262511 -0.8127792673768824
C    4.739999726559422 0.09375967891873693 -0.03751842486849937
C    4.660118597708784 0.062109638622830754 1.344450518219765
C    3.436786859015217 0.03852228665944324 1.9860791725121565
C    2.31384347089739 0.05583591380722027 1.2015090278562095
C    0.8888941862386827 0.011762016416780676 1.6052459442203697
N    0.1532256493702105 0.11423106199050354 0.40520760034896325
N    -3.5636328939954276 0.44066200378726367 0.7920989258370114
H    -1.3307609159062506 1.0142169878464016 -0.6054020959671472
H    -1.1208230690279068 -1.274425478329355 -1.4055255888784746
H    -2.0022078853269756 -1.743528174615964 0.036835174548105525
H    -2.861631443711668 0.11040972777853879 -2.148789676799806
H    -3.6181760020590485 -1.338275370149006 -1.850857987072121
H    -4.230776220829436 0.6446193249942873 1.50199016314961
H    3.648575083641158 0.1538203634032832 -1.8818723323338664
H    5.701567937942354 0.10179269245178373 -0.5100769839831132
H    5.561671662354697 0.05175212562086926 1.9234923523299075
H    3.3655859856460486 0.005313394087723765 3.053763539127067
29

O    0.6839387033562824 0.2490979803412295 -1.8174524556854719
O    -1.9999655891718116 0.7302252258394696 2.335615002929404
O    -5.248094524388188 0.10349433302964331 -0.6351948447961825
O    0.49270525015663064 -0.09728319748114635 2.7052921523999425
C    1.0200147811209677 0.17096241981256682 -0.6817800629142889
C    -1.2763184298342232 0.21425301795944585 0.08194476510669216
C    -1.821723395841348 -0.9698540877896383 -0.6602343050029621
C    -3.098683457673582 -0.5616458197090345 -1.358210237066629
C    -4.083568046131286 0.03482209070243591 -0.41306901868707124
C    -2.2468183547664995 0.5055582941400029 1.207265585956685
C    2.3918547461433106 0.11185313371875981 -0.15940075839569526
C    3.596868584328895 0.12068902585903554 -0.8128561870241618
C    4.739827713805143 0.09323965741723678 -0.0380253256134833
C    4.660315386693649 0.06181102790328737 1.3439615766334785
C    3.4371276799721175 0.038034558379089964 1.9858461334110626
C    2.3138680077686518 0.05566423372836645 1.201753953434195
C    0.8890480378585285 0.011676027227919734 1.6059355395637582
N    0.15316800463145783 0.11435897143281577 0.4060490868402137
N    -3.563949229381992 0.4411397625287328 0.7917249369099278
H    -1.3304114099756932 1.0141631454023197 -0.6050269162550646
H    -1.1203817310804831 -1.2741517182067237 -1.4048916063230659
H    -2.002319810615831 -1.7432898976887956 0.037155537781961775
H    -2.860641475059835 0.11072412846731032 -2.148756530999792
H    -3.6175298971079117 -1.337792225796134 -1.8513197496663998
H    -4.231365901316899 0.64533844539264 1.5012852649739608
H    3.6477874323249657 0.15291297213077776 -1.8819585098676517
H    5.701238414204014 0.1012199291041294 -0.5108885323525186
H    5.562008354604841 0.05144542257513252 1.9227716914950232
H    3.36625413766916 0.004848887262286248 3.0535430668843957
29

O    0.6821668306601519 0.24932401575719068 -1.8163697058023403
O    -2.001740484007524 0.7291890561301191 2.3363616131020617
O    -5.247684218455939 0.10236101803136555 -0.6367159553060894
O    0.49327705159704643 -0.0964939690836765 2.7065762754704235
C    1.0192220383766124 0.17100728329600892 -0.6809926786261369
C    -1.2763357567859226 0.21438275357527853 0.08274073073815033
C    -1.8209353716815633 -0.9697988033597486 -0.660003673365305
C    -3.097643680375754 -0.5618803123145373 -1.358669412901453
C    -4.083236957119313 0.03418898506261474 -0.41400383131577584
C    -2.2475379499694754 0.5051720345524895 1.207653919905914
C    2.391281167182078 0.11223206922168757 -0.15907316517712183
C    3.5960439017076906 0.12122307255275354 -0.8130277240232873
C    4.739399700282395 0.0933820833301876 -0.038768901941922757
C    4.660573686739375 0.062007864940129824 1.3432735440991954
C    3.437597863536089 0.038694063899792464 1.9856149667167997
C    2.3138814662480884 0.05609093296424291 1.202141311763834
C    0.8892569344358356 0.012009600855333208 1.6070389682530588
N    0.1530377535915611 0.11455395160878903 0.4073390064507738
N    -3.5643631748396247 0.4404089714954709 0.7911503983223878
H    -1.330381751475731 1.0144895816155315 -0.6040540588767057
H    -1.1190075486381696 -1.2738159663255533 -1.4042693916814304
H    -2.0017400998624155 -1.7434612791559314 0.03713455021251142
H    -2.859453220652423 0.11067765008762447 -2.149067413203055
H    -3.6159611782019145 -1.338244700503116 -1.85208504974018
H    -4.232271763258399 0.6441741058767839 1.5003830895059507
H    3.6464746187780652 0.1533521999068555 -1.8821664016802613
H    5.700590082881302 0.10115839881242572 -0.5121145845769143
H    5.562531903969717 0.05154938557296849 1.9216971580877171
H    3.3672121371275376 0.005581695133964558 3.05335566947006
29

O    0.6822748025049059 0.2496016196294134 -1.8159657865464267
O    -2.0028360006872687 0.7274271644753469 2.3368198209399753
O    -5.247572116259576 0.1020005520239382 -0.6375038273186482
O    0.4937629265816944 -0.09565556387697506 2.707154790459327
C    1.0190184713926809 0.17159338821627573 -0.6804871302942032
C    -1.276556536873302 0.21402497093520606 0.08319902941616915
C    -1.820621770867687 -0.9700782924505169 -0.659914444225902
C    -3.097177453545444 -0.5623050303680821 -1.358882509837417
C    -4.083216827424839 0.03345905118752745 -0.4144783553975135
C    -2.2482315268494686 0.5038673021818527 1.2079546732138589
C    2.391166713875144 0.11273658467790977 -0.15892618941914824
C    3.5958624679380318 0.12145514697551588 -0.8129904264979079
C    4.739498811136552 0.09405630738654938 -0.039172829293175795
C    4.660723357742579 0.06286595790874185 1.342847045738808
C    3.437845508430768 0.039258643173972964 1.9853372341631634
C    2.3138876647526616 0.0567337083943782 1.2022662276955474
C    0.8893524329329981 0.01273843131636286 1.6074732267767757
N    0.15288752637532574 0.11477574596758024 0.40787453782200406
N    -3.564945685233342 0.4393916349843105 0.7910110323112098
H    -1.330911833550369 1.0142835721996113 -0.6033123355271738
H    -1.1184357837317105 -1.273766154003693 -1.4040262018918777
H    -2.00142762349437 -1.74386123272701 0.03700235778243887
H    -2.8588043038138045 0.11032953361907345 -2.1490909293416207
H    -3.615214103529715 -1.338596546706347 -1.8525715367378222
H    -4.233128675713283 0.6429653844184336 1.5000445660594124
H    3.6460558420685163 0.1535100588244778 -1.8821246988620681
H    5.700580304082444 0.10190344993969556 -0.5127096017677815
H    5.562723249818688 0.05255271125205567 1.9211748022235335
H    3.3676941431576672 0.006247643872047994 3.0530767124383034
