29

O    0.6843126784593893 0.24904030068699193 -1.818106609124754
O    -1.996802875546186 0.7389528059780301 2.3328774456799075
O    -5.248948250228167 0.10539086245956378 -0.6324948031500736
O    0.4910836101985921 -0.10298827849674118 2.7042436437597948
C    1.0204196258776732 0.17035375963250987 -0.6824490326899814
C    -1.2757338493018968 0.21518627344732338 0.0805658862589531
C    -1.8228411645139677 -0.9694819586771081 -0.6603256767356099
C    -3.1002034347281424 -0.5605646007589625 -1.357569849856837
C    -4.084137536260988 0.03701072666476362 -0.41171342972071384
C    -2.2454318672236635 0.5104969586727753 1.2056402042524468
C    2.3922425368050546 0.11018939672338035 -0.15947491912630907
C    3.5976314376998175 0.11916937154649891 -0.8126229448892006
C    4.740474735698162 0.09125788667754714 -0.03736376040085163
C    4.660419405182754 0.05906602216823335 1.344739981721688
C    3.436847514782998 0.034735571919741685 1.9862269804563604
C    2.3136268916812273 0.05296761776549406 1.2018006572310655
C    0.8884358107075249 0.008292725112069133 1.6054345570921853
N    0.15336405260164973 0.1135176630248023 0.4052374568176328
N    -3.5631890258525374 0.4456985121902519 0.7918665837190635
H    -1.3284374027506773 1.0149902662380963 -0.6073918865021913
H    -1.121973314049497 -1.2752664546489414 -1.40518184732281
H    -2.003720131894039 -1.7428293184062236 0.03779859310003237
H    -2.862493045798513 0.11244303430353694 -2.148166792327642
H    -3.6195757330819753 -1.3372004381346965 -1.8502596620622662
H    -4.229854791706814 0.6522930751359546 1.5015731417846707
H    3.6488796749956833 0.15216767417129495 -1.8818386772047588
H    5.7022095839671785 0.09955269942139548 -0.5099291405711212
H    5.562049308721748 0.04836055032949245 1.9239404712359405
H    3.365599535999183 0.0007130395135158267 3.0540226810166624
29

O    0.6823689071635557 0.247445620912928 -1.8165942579969512
O    -2.0006426465590663 0.7369088007970711 2.3345579509546743
O    -5.248378353595176 0.1049086501289327 -0.6347150963475358
O    0.493380511334385 -0.10111765070576433 2.7062546816074238
C    1.0193439748768531 0.16960357018954272 -0.681161917681589
C    -1.2758668605792074 0.21540666802223124 0.08200502680145935
C    -1.8219988768629245 -0.9685491988496481 -0.6599209401639067
C    -3.0987196652514353 -0.5599570175822506 -1.3583512117300975
C    -4.083683717632957 0.03669364587051386 -0.4133396585422752
C    -2.2465345157389813 0.5097623726695257 1.2064954304909312
C    2.391436891554617 0.11005778186056425 -0.15905512719490938
C    3.5963503441350895 0.11866557495958412 -0.8128310718688797
C    4.739668944417355 0.09056010273149458 -0.03843858233339827
C    4.66066949662924 0.05930786103935514 1.343643309381894
C    3.437558879567016 0.036130739865305496 1.985840795574236
C    2.313880868626568 0.05369713648772647 1.2022231030873873
C    0.8891008310082499 0.009336953375841521 1.6068186581623147
N    0.1531444547279337 0.11388585136439638 0.4071429680955148
N    -3.563562673788205 0.4442752149588259 0.7908508330904421
H    -1.3283247638337397 1.0149272610440196 -0.6058552584206885
H    -1.120343831441356 -1.2734977296556933 -1.4042221508087904
H    -2.003160191816072 -1.7418715784948708 0.037732231357813756
H    -2.8604119686068668 0.11301180142995101 -2.1485036396787223
H    -3.6175287977207495 -1.336140679841843 -1.8517326032564643
H    -4.231010151423726 0.6494522315440525 1.5001172376930636
H    3.646900034675153 0.1507702433721882 -1.882014286418861
H    5.700974683002122 0.09811853532024103 -0.5116827805674773
H    5.562613019581415 0.04879361052555185 1.9221943594235225
H    3.3670291541924136 0.002929371045352463 3.0536212490658086
29

O    0.6850358432884631 0.24734155497958962 -1.818447999205123
O    -1.997119355554365 0.7343523472446433 2.3340070778070827
O    -5.248904670382554 0.10479258453569804 -0.632263055622719
O    0.4914915100585259 -0.09925710604517349 2.7041064363556346
C    1.0205945792032716 0.1694184724220376 -0.6826144923597631
C    -1.2759005765856202 0.21501994939361982 0.08064611524891974
C    -1.8227270597859653 -0.9687479261709447 -0.6608301165187259
C    -3.100145833545725 -0.5600512736996106 -1.3578166116635575
C    -4.084063660790126 0.036516637987886055 -0.41171262200939174
C    -2.2453952540159516 0.5084693672237929 1.2062126129665065
C    2.3922669899871023 0.11019605194535123 -0.1596185589336736
C    3.5976655601519973 0.11886845021258544 -0.8124135712101387
C    4.740353013899249 0.09113802495079848 -0.037151097296867615
C    4.66015911027089 0.06001930268138175 1.344818836875346
C    3.436599872433464 0.036729269339476074 1.9860691930138472
C    2.313614228962461 0.0541481321087221 1.2015414581259
C    0.8885475227590457 0.010198737576315894 1.6050543750456778
N    0.15333536351073726 0.11390546373810433 0.4049002113276894
N    -3.56296863112305 0.443450591103328 0.7922562295369653
H    -1.3291597135081474 1.01459678852592 -0.6069058131093461
H    -1.1219486342253833 -1.273556643504565 -1.4059024993473026
H    -2.0031697633181946 -1.7419915758503428 0.03692152821156328
H    -2.8625917953752578 0.11272643972196542 -2.1482308456761654
H    -3.61958962583124 -1.3360021953860757 -1.8506684810959677
H    -4.2296182759597185 0.6481302348437671 1.5023865355126378
H    3.649065185570857 0.15078441569110615 -1.8815256173380919
H    5.702006890181631 0.09876776537489373 -0.509598312857542
H    5.561592130208122 0.049744752658226185 1.9240928700119975
H    3.365229030981709 0.0038071305120895424 3.0537654657507063
29

O    0.6834234457935646 0.24989582108797773 -1.8171332214933889
O    -1.9984518919656786 0.7367859827554236 2.333571696626366
O    -5.248096578016746 0.10559228203928678 -0.6351237581007763
O    0.4919240652646567 -0.10192932444674181 2.7052785416490988
C    1.019962917426727 0.17065307707223804 -0.6816536537704162
C    -1.2758644765192315 0.21459174495397929 0.08144423172374807
C    -1.822366672817253 -0.9701502903610254 -0.6594915444029906
C    -3.0991607520691287 -0.5615180726704051 -1.3577159675487676
C    -4.0835902728501585 0.03671971692262534 -0.41294259817225765
C    -2.24632910398852 0.5090488033804625 1.2060482845185823
C    2.391865871676634 0.11095541731792413 -0.15917625283432588
C    3.596856608377287 0.12063114240944264 -0.8129000177204422
C    4.739927993603633 0.09288822138522483 -0.038102449494075395
C    4.6604391392595 0.05974609876373435 1.3439399724580645
C    3.437255172646267 0.03461270667805541 1.985980876518794
C    2.3138016137774753 0.0532957915855992 1.202037595709275
C    0.8888642123424425 0.009042064662678989 1.6063076417873183
N    0.15332567317159768 0.11344097744455035 0.4063200780291826
N    -3.5637676994251923 0.4450194029189004 0.7911933698778326
H    -1.328649853042595 1.014204934439852 -0.6064313881055661
H    -1.121197548961551 -1.2759806472274016 -1.4038777773940052
H    -2.0036147640862167 -1.7430884269880869 0.0386893178974686
H    -2.8607417165662588 0.11051499187616806 -2.1487093791796386
H    -3.6184241229804006 -1.338115330138291 -1.8502155816004462
H    -4.230949192201708 0.651600768057424 1.50037959872745
H    3.647655234633513 0.15414221445148057 -1.882059590038672
H    5.701405544278772 0.1017771971182831 -0.5110217377693393
H    5.562259103427976 0.04897272478703625 1.9227121025477332
H    3.3664920318822267 0.00016575386574236211 3.053730861241585
29

O    0.6830434404358786 0.249003644365592 -1.817108095356546
O    -1.999709595717129 0.7346344689758365 2.3346837170082813
O    -5.2484235780017015 0.10408927534731376 -0.6344567663308069
O    0.49238604547884 -0.09969732776720087 2.705624929093113
C    1.0197020399547068 0.17102733268564593 -0.6815744722766224
C    -1.276072550386461 0.21512693038459807 0.08173376188967037
C    -1.8217813920989172 -0.9693029173777381 -0.6602583989274335
C    -3.098862617710566 -0.5609063659001113 -1.3581800334845366
C    -4.083762380096405 0.03572018852059415 -0.41289794240114774
C    -2.246608122447019 0.5081666285955933 1.2066853631064662
C    2.391694718922643 0.11101549255398434 -0.1592457228697434
C    3.596789516966337 0.1192845636471317 -0.8128042563872132
C    4.73998759917644 0.09127343476459103 -0.03816308502074461
C    4.660639422617397 0.060144090546066106 1.3439424389263288
C    3.437326596396531 0.03692148810605812 1.9858446401295262
C    2.313745634034086 0.05468040738047753 1.2020279460335703
C    0.8888501882168796 0.010311676983078867 1.606387801537433
N    0.15313708857570735 0.11435783643275656 0.4064771216383385
N    -3.5638653107749403 0.443183262926062 0.7914732341658343
H    -1.3293413384976025 1.0151681888163864 -0.605631230887845
H    -1.1202960553360266 -1.2739762684854028 -1.4048619407291918
H    -2.0025502647951896 -1.7430359965402402 0.037216275156937956
H    -2.8609852438565206 0.11205526139664271 -2.1486145008453814
H    -3.6176064239698302 -1.3374784244824818 -1.8512939685070235
H    -4.231199770706567 0.6483260459723865 1.500918935803571
H    3.647573399474268 0.1515237616645626 -1.882005175980543
H    5.701424158648868 0.09882346049435099 -0.5112120586207661
H    5.562462448057533 0.049449962688306995 1.922735135059989
H    3.3665563292258396 0.0036256413144603507 3.0536356010176817
29

O    0.6838107812852512 0.2485872060927297 -1.8174710405258994
O    -1.9995917253326112 0.7337935162305352 2.33477008631302
O    -5.248471519789956 0.10413828428451373 -0.6343869366013472
O    0.49273203339190935 -0.09967566450577754 2.705291702929429
C    1.019963346158369 0.17000044043937673 -0.6818418548413837
C    -1.2760799784606438 0.21460592749632246 0.0815791082222041
C    -1.822088874095189 -0.9696182553198498 -0.6601629812747435
C    -3.099200041326133 -0.5613537910802319 -1.3580788699942403
C    -4.083812923510744 0.035658509378369986 -0.4128728379559571
C    -2.246384573270415 0.5077652368590564 1.206668616115465
C    2.391901081520251 0.11109806071455781 -0.1593604278805036
C    3.5970088822570894 0.12048608519284211 -0.8127811564006452
C    4.740027074646775 0.09278305204085797 -0.03793513442224738
C    4.660412606610958 0.06090578127013244 1.3441005559843169
C    3.4371736433085194 0.03690419855942347 1.9860220490237344
C    2.3138724096722236 0.054447468405400636 1.201864396569543
C    0.8889469435493728 0.010058012711962128 1.6059538510533702
N    0.1531959848101133 0.11377059241350525 0.40605981303743494
N    -3.563599047502028 0.44293812152192247 0.7913898469984718
H    -1.3294841154435726 1.0143789258261233 -0.6058850231152663
H    -1.1207463572418737 -1.274513295204311 -1.4047497515319995
H    -2.002798473919232 -1.7429583898364862 0.037571678649325264
H    -2.861368688418945 0.11114646311429678 -2.1487872147526135
H    -3.618203238303509 -1.3378494569882275 -1.850787845144961
H    -4.230843710330074 0.6480402268283194 1.500891740351638
H    3.6479300680569233 0.15296515422848336 -1.881937907375477
H    5.7015233596868296 0.10098716625942006 -0.510780374234512
H    5.562154228971089 0.05059230731098281 1.9229621371664902
H    3.366274804240032 0.0034338596834781175 3.053773025629124
