29

O    1.2254092860971477 0.006861938213065494 -2.1714945074109813
O    -0.7899371958433331 2.355375459088116 0.23748124484084765
O    -5.084559799007496 1.1514146742332676 -0.08370259931824055
O    -0.12249816767676583 -0.24933797007781613 2.143476708721496
C    1.2949444402903305 -0.11491635808210324 -0.9941625532678013
C    -1.1398381367827963 0.12668546715958545 -0.5482756969053151
C    -2.1539542023378955 -0.958091086502314 -0.19141184986290552
C    -3.532360921219951 -0.5493403494721103 -0.6992812042826344
C    -3.951720714949701 0.8203170920766167 -0.22223800669476365
C    -1.5659603167698986 1.501305903681236 -0.04217966639886689
C    2.50494727525074 -0.26430282382103465 -0.1374393429220982
C    3.8390329241100263 -0.32068795182765875 -0.48606267941647363
C    4.758810312071359 -0.4583009432210533 0.5493171903148679
C    4.344100400493373 -0.5342825362200728 1.877996849571215
C    2.9950849583820554 -0.47542942281463174 2.2151258974847807
C    2.0934571568924585 -0.33979851262048355 1.1792620519435508
C    0.6065785750867101 -0.2447013107194743 1.2079412081584093
N    0.20849148708605308 -0.16004158049244133 -0.12343484685280683
N    -2.9242607986963054 1.7140161927058772 0.02868675690344421
H    -1.0874690627630903 0.2183904743229904 -1.634080014762801
H    -1.8480595912096727 -1.8995619899499905 -0.6469775659464011
H    -2.174144913321342 -1.103568814460732 0.8879315610739102
H    -3.5437475789693074 -0.5155281181983096 -1.7933166336582416
H    -4.308033689367239 -1.2476435096982719 -0.3938841098471935
H    -3.204900162440997 2.626126189086063 0.3381774368328167
H    4.150601934369582 -0.2576414224298002 -1.5184620558856514
H    5.815228456831038 -0.5051170588178925 0.32250426017924105
H    5.08598750841268 -0.6386233349304403 2.658013020625192
H    2.6630244196401613 -0.5300625043011359 3.241568401184959
29

O    1.2221811167394447 -0.030824010533752052 -2.173900337855168
O    -0.7582071178596381 2.310619261198098 0.26200287509150155
O    -5.076478916758299 1.1647046193579156 -0.07620825676998783
O    -0.12417317674158358 -0.26307817969308644 2.142696740519899
C    1.2918620590907361 -0.14142642704042202 -0.9956186434821233
C    -1.1404732239524247 0.11395561740694646 -0.5501340052401316
C    -2.164876517009295 -0.9615053973838664 -0.20495094493665164
C    -3.5378260353150637 -0.5340968324596145 -0.7105827998165297
C    -3.9450127230279173 0.8314362019509721 -0.2184630605239974
C    -1.5563044830302588 1.4827431699464357 -0.03049190807328549
C    2.501999996284196 -0.2778510414794085 -0.1378540773852746
C    3.8361076048365272 -0.32688321315623864 -0.4854863964002777
C    4.7586896940009265 -0.4404518159006853 0.5496543061342309
C    4.342938434525787 -0.5034839612367622 1.8781356576311503
C    2.993969966582635 -0.45798200568933184 2.2156707785549923
C    2.091155200459442 -0.3438687101904659 1.1789785675061857
C    0.6041420912584706 -0.2611422857488197 1.206755202356102
N    0.20579178401418782 -0.18121434114541354 -0.12464091500867593
N    -2.9108866856701407 1.7121868542514251 0.04614771546459512
H    -1.0846866405400228 0.21346524773177886 -1.6343711878177478
H    -1.8673106510749056 -1.898204325909706 -0.6693956733989949
H    -2.189152679599922 -1.1161707751013088 0.8723751545909947
H    -3.546881111202254 -0.4887227027485874 -1.8035829930115546
H    -4.320700866129611 -1.2256069321277585 -0.4140885685127951
H    -3.1818810496960257 2.6194447289551177 0.371576121741213
H    4.146504362617573 -0.27221061999665547 -1.5182404774763825
H    5.815152127821908 -0.4777210194814977 0.32332358826165464
H    5.085376244837491 -0.5886546292079281 2.659242273804338
H    2.663235079355242 -0.5039406828367077 3.242530517988606
29

O    1.2205756949628064 -0.04620424156929807 -2.1755742735956627
O    -0.7641713270263129 2.3174654848061 0.27449969878446745
O    -5.071271902339067 1.1730967946990365 -0.07281154643601882
O    -0.12481612771129452 -0.27022624403274137 2.141473433098977
C    1.2906378423420657 -0.15186645394339301 -0.9968507327557442
C    -1.140316540273673 0.11149119752849589 -0.5501736193343025
C    -2.166677935604185 -0.962541867665335 -0.20845746780041993
C    -3.537785903881638 -0.5308797659715653 -0.7142223907823547
C    -3.9422994502018613 0.8329747527698235 -0.21800103562424145
C    -1.5502408941880743 1.4810887106667738 -0.025769036207301362
C    2.5009928679650524 -0.28381516581371113 -0.13907383039390211
C    3.834958675992775 -0.3295702277813677 -0.48704423467868974
C    4.755794119110204 -0.43554238095071635 0.5503359770412849
C    4.343370463121701 -0.4946942716657509 1.8799079746126723
C    2.993863114344983 -0.4529555745264336 2.2151250506883033
C    2.0907807207968423 -0.3460748980874888 1.1780138147366708
C    0.6038032661453686 -0.2653178899514288 1.2058597039624699
N    0.20495325599154357 -0.18858320024320283 -0.12552947170661174
N    -2.9045695158787095 1.7078053939141862 0.050105036199413845
H    -1.0838760972957888 0.21252859426791823 -1.6340232154187047
H    -1.871670725917111 -1.8978654217260733 -0.6754313476262704
H    -2.1921572059580714 -1.1196081522174868 0.8683976135454278
H    -3.5452096208424244 -0.4826545102530534 -1.8069296289265273
H    -4.32265203155737 -1.2205674093367722 -0.420701506012378
H    -3.1748133127480895 2.612789381547901 0.38065513898210646
H    4.1459121552247815 -0.2779656297831823 -1.5197048483334072
H    5.812174167296819 -0.46975531164285256 0.3240235495078365
H    5.086270429192464 -0.5733888031868009 2.661142962475122
H    2.662695703345367 -0.49564709760408066 3.2418374857145342
29

O    1.2224165195242394 -0.039326504987531576 -2.175322648222527
O    -0.7687749062435378 2.3252996127007033 0.2655665623410792
O    -5.074885454822066 1.1666487357784538 -0.07465999870266449
O    -0.1260326129352691 -0.26833091238013884 2.1403325539330607
C    1.2920466997090243 -0.1465617514144138 -0.996586397814875
C    -1.1405152071441922 0.11565416278532836 -0.549858443475941
C    -2.1637224093700893 -0.9617443333778505 -0.2052919557368177
C    -3.5365249661615916 -0.5345414380938086 -0.711386348811519
C    -3.9442837925972682 0.8306131016407982 -0.21785825834287897
C    -1.5550609955800252 1.486195868797571 -0.027771772320941204
C    2.502230386290823 -0.28152410857919213 -0.13860775140853962
C    3.8367446072376357 -0.32808270846147586 -0.4857473538835781
C    4.7593080936357195 -0.44028970595313294 0.549723656392018
C    4.342611661307728 -0.5020857553560424 1.8781163914687595
C    2.993556264368991 -0.45616196269017395 2.2158225498811763
C    2.091046003180133 -0.34500659838051045 1.1783840103809267
C    0.6040963185665065 -0.2596130307252697 1.205874569233129
N    0.2056351922190757 -0.18369563716110884 -0.12595872527988494
N    -2.9102901027877004 1.711456455676881 0.04737327146336946
H    -1.0853460097518122 0.21547701410446474 -1.6342032070184418
H    -1.8666032692247143 -1.898415536439433 -0.6707994907351885
H    -2.1877041582704884 -1.1169127472618416 0.8722286254095329
H    -3.544237732594372 -0.48888221482374794 -1.8044859946828788
H    -4.319408196738679 -1.227084013704151 -0.4163973503086329
H    -3.182987022604069 2.617827917264457 0.3748865302152486
H    4.147397157145132 -0.27483218013375815 -1.5185881580708074
H    5.81597069971251 -0.4770968411678242 0.3238076389666526
H    5.084915849503947 -0.5852088662821869 2.6596869861375527
H    2.662655268616282 -0.5002602290024517 3.2427997622458133
29

O    1.2208420311590276 -0.04177646157475463 -2.175765070574151
O    -0.7647923940828231 2.3203477905412377 0.26714379451323245
O    -5.074972755247013 1.167947748021705 -0.0733877536062096
O    -0.12451844279880445 -0.2679229181647543 2.1414632601961787
C    1.2914098439540924 -0.1485266471165996 -0.9970000329455235
C    -1.140294859601614 0.11497274593996831 -0.5499479266786697
C    -2.1645346529202607 -0.9623690598375215 -0.20716368020769665
C    -3.5372331238009087 -0.5334626190837767 -0.7129050150777124
C    -3.9445532139090793 0.8313239988155803 -0.21716821634750919
C    -1.5547927317416408 1.4846928837659097 -0.026380236712185555
C    2.5018405189023865 -0.28310253462352836 -0.13922393336556343
C    3.8360768719855733 -0.3292143231186398 -0.4873585868543791
C    4.756058977128958 -0.4393976482398195 0.5507397083366651
C    4.3445378643773935 -0.49973525984811445 1.8808723508108787
C    2.9947527190402115 -0.4536130207792227 2.2155494997895318
C    2.0916054798910357 -0.3450641359113383 1.1782329810920023
C    0.6045952722889831 -0.2608246897324157 1.2061848140817963
N    0.20555819219369967 -0.1856822263719783 -0.12568174102759258
N    -2.9099361095020773 1.7112379881162032 0.049142480045215015
H    -1.0846278614449458 0.21657705362426508 -1.6341660958607211
H    -1.8677046588523238 -1.8988090664589112 -0.6738854595380468
H    -2.188824811298057 -1.1189696638055835 0.8701750036597911
H    -3.5446293087402663 -0.4859834637962545 -1.8059840635232354
H    -4.320639679823276 -1.226267303415105 -0.41931129256517263
H    -3.1817395922372733 2.617492680804179 0.3782547961800524
H    4.147455807086439 -0.27715703907793166 -1.5201300219109455
H    5.812585644316352 -0.47579250974976317 0.32430076251718887
H    5.087558853796133 -0.5811974120714001 2.6621096113074825
H    2.6631700038123367 -0.4962090946308266 3.2423693172593233
29

O    1.2209158286009698 -0.04812784245410294 -2.1756528016380785
O    -0.7624222604941855 2.316386311062101 0.27355363040165775
O    -5.0728727766737896 1.1715284702950575 -0.07102066790773674
O    -0.12502703133663667 -0.26861608384178776 2.1418814215459236
C    1.2907310612719687 -0.1534037149270782 -0.9967512890362142
C    -1.1402622151271278 0.1126955487866066 -0.5502728836726666
C    -2.1665523146348495 -0.9630984731284092 -0.210144295670416
C    -3.5383011232240524 -0.5310263431523531 -0.7153693341632008
C    -3.943403124120348 0.832671692736864 -0.21654210255502399
C    -1.5517341507007774 1.4817697313844325 -0.02426496611760122
C    2.5011375479574034 -0.28595264503304296 -0.13879047853118803
C    3.8354359724573053 -0.33132418451315704 -0.48648550269172175
C    4.757576965999251 -0.43664502686592044 0.5500162432242269
C    4.343469649200674 -0.4938473587729998 1.879356405414238
C    2.9941556545620975 -0.4502513435814576 2.215951845568952
C    2.0907865771346383 -0.3458084922073667 1.1786069646255775
C    0.6037503627901557 -0.2641119283555733 1.2063587876872102
N    0.20483498840821468 -0.18969609396097753 -0.12554945939260923
N    -2.906408642133038 1.7088855021387692 0.05182785709690419
H    -1.0836712647545168 0.21611613160438486 -1.6341282295761943
H    -1.8710569151443435 -1.8986221886776544 -0.6784898875717472
H    -2.191637208248312 -1.1216149686955177 0.8667552181765685
H    -3.545364325031679 -0.4808876046819277 -1.8082105417777241
H    -4.323017902295029 -1.2225840293152321 -0.42351004210857884
H    -3.176742422799034 2.6141091372903773 0.3838214095810184
H    4.1459536477526004 -0.2810410896385619 -1.5194851931253892
H    5.8141474790834415 -0.4714133600775945 0.32370668698318805
H    5.086412758265182 -0.5716110156388541 2.6608515131892037
H    2.663419066406213 -0.49096294556887976 3.243058945169251
29

O    1.2219778551522102 -0.046701505968224095 -2.176410017835775
O    -0.7638592535617157 2.3190704208263875 0.2703030455562421
O    -5.072973997318516 1.168557950924634 -0.06965008949838257
O    -0.12628834590674354 -0.26819947205325617 2.139734180326616
C    1.291509773124012 -0.15239689501701004 -0.9975307547205983
C    -1.1403371036841463 0.11358797449314709 -0.5508743687426045
C    -2.1654525890656093 -0.9627242876315922 -0.20927533139647989
C    -3.5377058725945285 -0.5319481004999317 -0.7137531132962979
C    -3.942927941482102 0.831887437934009 -0.21542906448090313
C    -1.552391383706538 1.4829967267949151 -0.02542990976658544
C    2.5016041584638673 -0.28525653064103784 -0.1392172262278236
C    3.836044520378847 -0.33065407194763835 -0.48639322061606266
C    4.7573643125050875 -0.437440446563479 0.5506897906466262
C    4.342703969801583 -0.4957317824080333 1.87981647259242
C    2.993253239166487 -0.451691804615947 2.215784852799751
C    2.0906376171429435 -0.3456104477268502 1.1779440200472002
C    0.6036525065397679 -0.2621612993582571 1.2051608576168134
N    0.20511567897010255 -0.1884495508716509 -0.12689879549812907
N    -2.9070604154624955 1.7099951841584466 0.05151111628153669
H    -1.0845145966647354 0.21635212121170322 -1.6348393793537428
H    -1.869740020241035 -1.8983889446317177 -0.6772073224333773
H    -2.189506729831234 -1.120486127290969 0.8678147670866705
H    -3.5455274996333093 -0.4824710596292111 -1.8066263835374592
H    -4.3217073982473915 -1.2239568225954605 -0.42096765639732625
H    -3.1779716557195634 2.615345844572494 0.3828147500018307
H    4.1471578815378844 -0.2798300012543145 -1.5191968400958564
H    5.814037329530146 -0.4726293937188147 0.32493367300785797
H    5.085246777038054 -0.5745594064863139 2.661591858795624
H    2.6619130671440754 -0.4929899176325826 3.2426793421669764
29

O    1.2212629403650292 -0.04655232003729607 -2.17601217835841
O    -0.763873931713999 2.318812007786885 0.26991803017602484
O    -5.0732153393305675 1.1698013229994466 -0.0694150605114432
O    -0.1256675674513647 -0.26798178579859183 2.140803564434693
C    1.2912008148995142 -0.1522868152898691 -0.9971470805003138
C    -1.1402529757701643 0.11351611440136933 -0.55064573609271
C    -2.165530027359076 -0.962911817690657 -0.2095319145289071
C    -3.537742008611762 -0.53195556610543 -0.7142457754441746
C    -3.943594188534322 0.8317920460655601 -0.21561463772125383
C    -1.5527857334685855 1.4828852193263151 -0.025374261767220064
C    2.501437092319229 -0.2852717684147235 -0.13896359876121422
C    3.8358522310670256 -0.33068300191898614 -0.4863419189957425
C    4.75748536329605 -0.4376039732573752 0.5504903086955635
C    4.343228992008109 -0.4957989391645617 1.879779436800353
C    2.993793334220805 -0.45138141057298337 2.215883736021807
C    2.090772107266873 -0.34549172134185263 1.178333212183294
C    0.6038060719676961 -0.2620927758077575 1.2058534165838128
N    0.20506964706564443 -0.18869526192296043 -0.12621825823991858
N    -2.9075679301823794 1.7097185813059277 0.05124933869881142
H    -1.0840397990326434 0.21646962779109355 -1.634612829630761
H    -1.8696255103241881 -1.8986048796312307 -0.6775301454678793
H    -2.1898579323924166 -1.1208754820423994 0.8675421930084968
H    -3.545179775524198 -0.4821449787355744 -1.8071371324267145
H    -4.321762733079016 -1.224226565173583 -0.4219451155506685
H    -3.1784324187004467 2.615186326106159 0.3824905220675295
H    4.146734260202846 -0.27993086407817674 -1.5192351021224646
H    5.814107706695739 -0.47292868403329885 0.3244235210999634
H    5.0859496154164585 -0.5747037834290625 2.6614106924374648
H    2.6626815778478767 -0.4925430588832071 3.2428720266026283
