29

O    1.109265336464703 -0.14164952975504339 -2.182753083578074
O    -0.7602902162874309 1.9199775684724527 1.1971425288399709
O    -5.065925368313598 1.1100325598714837 0.29187125923702956
O    -0.061795158441298764 -0.5818750873509558 2.1547844283586812
C    1.224418493173625 -0.2373656153433065 -1.0063364058035185
C    -1.1332533481818643 0.28672290536386696 -0.4513665588651918
C    -2.2070589802215093 -0.7560126449240563 -0.6119954882995812
C    -3.5035637027500606 -0.08443043925264704 -1.0114767238510107
C    -3.929983935391422 0.9032529760785403 0.018280492683663517
C    -1.5543254242561622 1.3436646305898505 0.5399244717943547
C    2.4593636773350935 -0.42791225701926894 -0.21085948224480833
C    3.7728081827203392 -0.45908090200696133 -0.609415935565271
C    4.7382136664469705 -0.5319577608148012 0.3821758998341892
C    4.382694587360942 -0.5810401165301826 1.7216383274908789
C    3.0516765136296553 -0.5813389148314028 2.107823838489847
C    2.106571918011295 -0.5059087578927511 1.1153741110132382
C    0.6287802158416508 -0.4430291525792657 1.2068246321270724
N    0.18186660190440734 -0.19886141970608323 -0.09363694125523077
N    -2.90384180480291 1.5223309550047812 0.6961973922616763
H    -0.9934832146308994 0.7442066764240483 -1.4158443573041841
H    -1.9031520985217787 -1.427118462261815 -1.3852991282447769
H    -2.338647116449487 -1.2724570483993893 0.3215671835500414
H    -3.3752049238862987 0.39684271116348874 -1.9700459871315972
H    -4.333457800678373 -0.7459564660313016 -1.1364766237563688
H    -3.176595893320559 2.095686583872729 1.456918973422793
H    4.040075605507578 -0.4070112994717217 -1.6484359097904615
H    5.7783805287768235 -0.5408563130917107 0.11108022896658117
H    5.15267636754169 -0.6209062076221922 2.4706673865096933
H    2.76804118310952 -0.6244333999746403 3.142750726077242
