29

O    0.684284171020289 0.2492216137378121 -1.8183093926492346
O    -1.9965277200845168 0.7414280489122065 2.332402399304211
O    -5.249407231643148 0.10451997322120883 -0.6314147957624622
O    0.4908405061429877 -0.10499022550267939 2.703996940182415
C    1.020430147775343 0.17039967453585642 -0.6826565486933415
C    -1.275625897918314 0.21541911141107212 0.0803707703941719
C    -1.8230325548234054 -0.9694047283531413 -0.6604520324610175
C    -3.1004656968416477 -0.5602495916634828 -1.3576444408915427
C    -4.084423652525865 0.03682629974230649 -0.41130274245786896
C    -2.2451849582990757 0.5117696862255823 1.2053901948945578
C    2.3923232198269573 0.10999469067004389 -0.15953097126368757
C    3.597861335138065 0.11911119074997445 -0.8125859055415362
C    4.740715485772211 0.09094711224949092 -0.037222257951042725
C    4.660566311344079 0.05850081738831628 1.344959827270228
C    3.436855136384216 0.034040712705897584 1.9863312549322831
C    2.31358900881678 0.052365195615681745 1.2018068256943106
C    0.8882685245095546 0.007222140017216202 1.605287748584414
N    0.1533729785890775 0.11340802134157073 0.40505181735770684
N    -3.563053195824602 0.44656273499227017 0.7918326556568887
H    -1.3282984354237608 1.0153523780714069 -0.6077448778358326
H    -1.1220482272003196 -1.2756591808432092 -1.4051894657476038
H    -2.0041535887408366 -1.7428302748838054 0.037834137826896264
H    -2.862856886015169 0.11375953541647092 -2.1476086313800846
H    -3.6196218702916796 -1.336926532901736 -1.8509398959273295
H    -4.229619502665084 0.6536227092065322 1.501567763724977
H    3.6491790767464334 0.15237044368722266 -1.8818639154434837
H    5.702566981003355 0.09933480867853159 -0.5097311497836935
H    5.562229063261076 0.04768901771993514 1.924259905442891
H    3.3654914546024712 -0.0002896376614040262 3.0541840372170403
