29

O    0.6339121916785255 0.2731803802638296 -1.7736539857413938
O    -2.0958569644957206 0.4023435033584353 2.4193625333500375
O    -5.172801817967428 -0.003743400047710726 -0.7291194730619311
O    0.5501402242275097 0.0983889789159765 2.735312189112615
C    0.9847167537092346 0.21613459255575776 -0.6438227540236185
C    -1.2900288766165906 0.16602474065037437 0.14974801745761135
C    -1.7649275982798969 -0.9943668016769671 -0.6086400869464983
C    -2.9976103360934707 -0.6075342874449037 -1.3543629296674324
C    -4.0216371320474344 -0.06893382342082995 -0.45058743812598956
C    -2.2861968220622697 0.3101895109308519 1.2658330064228867
C    2.3482477238751254 0.19326243131076598 -0.1614767766355554
C    3.5236219954657706 0.1994039843104738 -0.830394613480014
C    4.676108408537906 0.18811851413049124 -0.097190253744158
C    4.631872105190877 0.17654185191180866 1.268740678726131
C    3.4352170868774223 0.16408345005175468 1.928046687219421
C    2.306037990304147 0.16527083489958147 1.1855793886087682
C    0.9133516466979494 0.13323574457108886 1.6230306569332946
N    0.14548801692805363 0.15322722244005696 0.45211318938626216
N    -3.570639012640088 0.2514314706527602 0.7919149170104383
H    -1.4021987835150806 0.9334636903232734 -0.5162994353870076
H    -1.047592996847798 -1.2579594133429925 -1.3236980772173215
H    -1.9604451784689878 -1.7311697386171991 0.07635033361443279
H    -2.7074840576787302 0.026317280988389733 -2.121117780767499
H    -3.4972970078023446 -1.322306197493357 -1.895759741078569
H    -4.264361164378401 0.35863187315250183 1.4843252072469981
H    3.5498672011289814 0.21352332370298027 -1.8856408564888292
H    5.609345621232661 0.1912639469690076 -0.5912057975564408
H    5.531837222116822 0.1743444837889337 1.8211941471798168
H    3.3935673966243374 0.15114762182625965 2.982498328949592
