29

O    0.6864845810024134 0.24689890628310848 -1.820664338699264
O    -1.9899014215096327 0.7578653401541011 2.326587738018667
O    -5.25025380767487 0.11158721088838744 -0.6273551928205806
O    0.4882673047175992 -0.11194334668685854 2.700871169954585
C    1.0218359105677512 0.1681045208478759 -0.6847587973220155
C    -1.2745742072240667 0.2173730417715592 0.07692741763924608
C    -1.8252851058519466 -0.9688641221149248 -0.6590433508736278
C    -3.104092650154906 -0.5608193955523396 -1.3547125585828217
C    -4.085004294829364 0.0424711757515279 -0.40907444437432505
C    -2.2418109354712525 0.5219889348245385 1.2015607937889006
C    2.393292412854533 0.10666056396883894 -0.16018471207985469
C    3.599500866703617 0.11572902003129312 -0.8121300053709227
C    4.741498255829375 0.08696241729755237 -0.035376160947397865
C    4.659929716493629 0.053982189255415515 1.3467721160956414
C    3.4355668615834913 0.029425855319100424 1.9870738996118475
C    2.3131764449358174 0.04834231158525978 1.2011972283422723
C    0.8872695262664343 0.0032084114157298815 1.6030131189900034
N    0.15387352772415436 0.11273240024437535 0.4022294077188626
N    -3.5606073561518676 0.45595557638977924 0.7914716469460361
H    -1.3244831512636543 1.014880724534953 -0.614750652681013
H    -1.125925739391803 -1.2776980907083768 -1.4044577957044855
H    -2.005385988695537 -1.7405157648286318 0.04192692687394958
H    -2.8679556085680247 0.10925581146648056 -2.148963670695509
H    -3.625747447436308 -1.3396013204250787 -1.8421775005995265
H    -4.225488154043035 0.6673409660326679 1.501476540128743
H    3.6519549767303516 0.14930559649751332 -1.88141753351402
H    5.703935028772343 0.09530603202982188 -0.5068613085677631
H    5.561089864863394 0.04292933957638625 1.9269847483366058
H    3.363094571895968 -0.005348561810231816 3.0549145221110408
