29

O    0.6843126784593893 0.24904030068699193 -1.818106609124754
O    -1.996802875546186 0.7389528059780301 2.3328774456799075
O    -5.248948250228167 0.10539086245956378 -0.6324948031500736
O    0.4910836101985921 -0.10298827849674118 2.7042436437597948
C    1.0204196258776732 0.17035375963250987 -0.6824490326899814
C    -1.2757338493018968 0.21518627344732338 0.0805658862589531
C    -1.8228411645139677 -0.9694819586771081 -0.6603256767356099
C    -3.1002034347281424 -0.5605646007589625 -1.357569849856837
C    -4.084137536260988 0.03701072666476362 -0.41171342972071384
C    -2.2454318672236635 0.5104969586727753 1.2056402042524468
C    2.3922425368050546 0.11018939672338035 -0.15947491912630907
C    3.5976314376998175 0.11916937154649891 -0.8126229448892006
C    4.740474735698162 0.09125788667754714 -0.03736376040085163
C    4.660419405182754 0.05906602216823335 1.344739981721688
C    3.436847514782998 0.034735571919741685 1.9862269804563604
C    2.3136268916812273 0.05296761776549406 1.2018006572310655
C    0.8884358107075249 0.008292725112069133 1.6054345570921853
N    0.15336405260164973 0.1135176630248023 0.4052374568176328
N    -3.5631890258525374 0.4456985121902519 0.7918665837190635
H    -1.3284374027506773 1.0149902662380963 -0.6073918865021913
H    -1.121973314049497 -1.2752664546489414 -1.40518184732281
H    -2.003720131894039 -1.7428293184062236 0.03779859310003237
H    -2.862493045798513 0.11244303430353694 -2.148166792327642
H    -3.6195757330819753 -1.3372004381346965 -1.8502596620622662
H    -4.229854791706814 0.6522930751359546 1.5015731417846707
H    3.6488796749956833 0.15216767417129495 -1.8818386772047588
H    5.7022095839671785 0.09955269942139548 -0.5099291405711212
H    5.562049308721748 0.04836055032949245 1.9239404712359405
H    3.365599535999183 0.0007130395135158267 3.0540226810166624
