29

O    0.684284171020289 0.2492216137378121 -1.8183093926492346
O    -1.9965277200845168 0.7414280489122065 2.332402399304211
O    -5.249407231643148 0.10451997322120883 -0.6314147957624622
O    0.4908405061429877 -0.10499022550267939 2.703996940182415
C    1.020430147775343 0.17039967453585642 -0.6826565486933415
C    -1.275625897918314 0.21541911141107212 0.0803707703941719
C    -1.8230325548234054 -0.9694047283531413 -0.6604520324610175
C    -3.1004656968416477 -0.5602495916634828 -1.3576444408915427
C    -4.084423652525865 0.03682629974230649 -0.41130274245786896
C    -2.2451849582990757 0.5117696862255823 1.2053901948945578
C    2.3923232198269573 0.10999469067004389 -0.15953097126368757
C    3.597861335138065 0.11911119074997445 -0.8125859055415362
C    4.740715485772211 0.09094711224949092 -0.037222257951042725
C    4.660566311344079 0.05850081738831628 1.344959827270228
C    3.436855136384216 0.034040712705897584 1.9863312549322831
C    2.31358900881678 0.052365195615681745 1.2018068256943106
C    0.8882685245095546 0.007222140017216202 1.605287748584414
N    0.1533729785890775 0.11340802134157073 0.40505181735770684
N    -3.563053195824602 0.44656273499227017 0.7918326556568887
H    -1.3282984354237608 1.0153523780714069 -0.6077448778358326
H    -1.1220482272003196 -1.2756591808432092 -1.4051894657476038
H    -2.0041535887408366 -1.7428302748838054 0.037834137826896264
H    -2.862856886015169 0.11375953541647092 -2.1476086313800846
H    -3.6196218702916796 -1.336926532901736 -1.8509398959273295
H    -4.229619502665084 0.6536227092065322 1.501567763724977
H    3.6491790767464334 0.15237044368722266 -1.8818639154434837
H    5.702566981003355 0.09933480867853159 -0.5097311497836935
H    5.562229063261076 0.04768901771993514 1.924259905442891
H    3.3654914546024712 -0.0002896376614040262 3.0541840372170403
29

O    0.6843225367302211 0.24767016651744134 -1.8183068616437112
O    -1.996667435815107 0.7394098271115607 2.3328869473242246
O    -5.249258370792337 0.10547117297928114 -0.6314235195712075
O    0.49132315110416097 -0.10338712839748533 2.7040649686820113
C    1.0204625360131472 0.1692277963780063 -0.682656498563588
C    -1.2755603614576971 0.21517465767910618 0.08042571181189813
C    -1.8230827115238102 -0.9690164095871681 -0.660578096203874
C    -3.1004185055925504 -0.5597613995019508 -1.3577346950942142
C    -4.0842787207628835 0.03723159125094174 -0.4115155605244788
C    -2.244974384677074 0.5109374514614206 1.2055874037669303
C    2.392273883904184 0.10965926877211345 -0.1595247818824788
C    3.5976577130935117 0.11888024629274628 -0.8126144650933765
C    4.740347002338161 0.09086521598862249 -0.03717251191684338
C    4.660223620456886 0.05888455168260999 1.344918347014903
C    3.4367146123893524 0.03488980342893843 1.98647425359038
C    2.313696934845178 0.05265801472388116 1.2017635725170333
C    0.8884729107023814 0.007920217294213086 1.6051998141409136
N    0.15343644393871383 0.11323673951433383 0.405040478050293
N    -3.5626713603954756 0.4457749184316991 0.791806686000171
H    -1.3281183701458057 1.0148103661416106 -0.6076445382269255
H    -1.1222094046055178 -1.2748518160006366 -1.4054103356897734
H    -2.004073609962224 -1.742253943204253 0.037558542131817065
H    -2.862659474939535 0.11382182556009433 -2.147735088072092
H    -3.6198339069075054 -1.3359245508390942 -1.8509647513626803
H    -4.229205365554919 0.6520191545665698 1.5016989052991987
H    3.648988098139871 0.15155165254246217 -1.8818234388979362
H    5.702125737840093 0.09900169835634745 -0.5096239853913698
H    5.561843421123891 0.04843272991179868 1.9241163848439948
H    3.3653773624303898 0.0011819254303726428 3.0542663672028025
29

O    0.6837607629599318 0.24884111650862156 -1.8175907372721187
O    -1.9979164335528317 0.7397762584570385 2.3330337806815824
O    -5.248816565254726 0.10497269433364145 -0.6332744579939614
O    0.49172120862536 -0.10325354227711213 2.7048290850969425
C    1.02003967362362 0.17013933940465825 -0.6819983486704683
C    -1.2757690640390946 0.2153933068675562 0.0809745234731749
C    -1.8227505236059318 -0.9691348006767138 -0.6599563238315872
C    -3.099836059279119 -0.5603483491366174 -1.3577345217175407
C    -4.084042955179532 0.0370668387123115 -0.4121892436813187
C    -2.245779173615815 0.5110243886873558 1.205701328582639
C    2.3919841980358334 0.11016927441644142 -0.15935537267159647
C    3.597315454644894 0.11927086937761162 -0.8125464426131688
C    4.740396150107521 0.09095559213514831 -0.03769160366662702
C    4.660681273676623 0.05845639635929309 1.3443916139174894
C    3.4371318695650643 0.03433009514163779 1.9858774938191075
C    2.3136361561908045 0.05280109326138966 1.2018965931718348
C    0.8885665460499037 0.008382335839535833 1.6058877342858306
N    0.15324685579725142 0.11366715105503722 0.40587373057885767
N    -3.5633318756818 0.4458865925807262 0.7914267106873369
H    -1.3282160710146682 1.0149316385836158 -0.6071887600735449
H    -1.1216213610272368 -1.2749774843989876 -1.4045044940179052
H    -2.00384723941239 -1.7422445988226307 0.03825486541152372
H    -2.861852582724518 0.1126890448471848 -2.1481124556294318
H    -3.619007277176774 -1.3368311677369216 -1.850696777266021
H    -4.230238905644432 0.6523159497346213 1.500917427296939
H    3.6483497701947463 0.15232879496146717 -1.8817431758499978
H    5.701982924171784 0.09912877755814567 -0.5105083813026108
H    5.562375574325004 0.047551454575571056 1.9234487847063104
H    3.3660916501214984 0.00022668420397901976 3.0536566777347405
29

O    0.6843126784593893 0.24904030068699193 -1.818106609124754
O    -1.996802875546186 0.7389528059780301 2.3328774456799075
O    -5.248948250228167 0.10539086245956378 -0.6324948031500736
O    0.4910836101985921 -0.10298827849674118 2.7042436437597948
C    1.0204196258776732 0.17035375963250987 -0.6824490326899814
C    -1.2757338493018968 0.21518627344732338 0.0805658862589531
C    -1.8228411645139677 -0.9694819586771081 -0.6603256767356099
C    -3.1002034347281424 -0.5605646007589625 -1.357569849856837
C    -4.084137536260988 0.03701072666476362 -0.41171342972071384
C    -2.2454318672236635 0.5104969586727753 1.2056402042524468
C    2.3922425368050546 0.11018939672338035 -0.15947491912630907
C    3.5976314376998175 0.11916937154649891 -0.8126229448892006
C    4.740474735698162 0.09125788667754714 -0.03736376040085163
C    4.660419405182754 0.05906602216823335 1.344739981721688
C    3.436847514782998 0.034735571919741685 1.9862269804563604
C    2.3136268916812273 0.05296761776549406 1.2018006572310655
C    0.8884358107075249 0.008292725112069133 1.6054345570921853
N    0.15336405260164973 0.1135176630248023 0.4052374568176328
N    -3.5631890258525374 0.4456985121902519 0.7918665837190635
H    -1.3284374027506773 1.0149902662380963 -0.6073918865021913
H    -1.121973314049497 -1.2752664546489414 -1.40518184732281
H    -2.003720131894039 -1.7428293184062236 0.03779859310003237
H    -2.862493045798513 0.11244303430353694 -2.148166792327642
H    -3.6195757330819753 -1.3372004381346965 -1.8502596620622662
H    -4.229854791706814 0.6522930751359546 1.5015731417846707
H    3.6488796749956833 0.15216767417129495 -1.8818386772047588
H    5.7022095839671785 0.09955269942139548 -0.5099291405711212
H    5.562049308721748 0.04836055032949245 1.9239404712359405
H    3.365599535999183 0.0007130395135158267 3.0540226810166624
