29

O    1.0563573944650402 -0.12470534119438181 -2.1481595750094646
O    -0.8820196321576729 1.8187618034399298 1.395936785443787
O    -5.116670105474072 1.012735688884946 0.21295906403133805
O    0.0019350917280710435 -0.5918042344653538 2.2127172334288505
C    1.202004411484573 -0.21199112510024334 -0.9742855426069053
C    -1.1410215102886123 0.30643147580923036 -0.3868298138448609
C    -2.1792463225084506 -0.7467942161019878 -0.6489128549976412
C    -3.47024983718508 -0.0829438640593524 -1.0709391748444712
C    -3.9649226601253917 0.8348296724641017 -0.009959247420565769
C    -1.6265215220664164 1.2783910005225902 0.657517745405906
C    2.4559080958940562 -0.39864907706768327 -0.2126899301890917
C    3.7577291487758404 -0.4269776398213931 -0.6432219136379915
C    4.747612099670316 -0.49396417826198213 0.3225383588875498
C    4.426202063013609 -0.5404726875836015 1.6691408527900895
C    3.1062368941838314 -0.5460721533159507 2.0874916496184013
C    2.1370441854460465 -0.47694983280896314 1.120317241417171
C    0.6626972352636069 -0.4277134956998355 1.2496951687710949
N    0.18350407077631878 -0.1634977539507064 -0.03692404595384045
N    -2.9864068472185954 1.4122284626746966 0.7654798783247828
H    -0.9948109351651144 0.8225783119725023 -1.3154039068258492
H    -1.8264295370206762 -1.3623268019831793 -1.4449551546297354
H    -2.3392403535292003 -1.3093664352139258 0.2478351580237139
H    -3.308802708435367 0.44138801845299686 -1.9967897933679393
H    -4.280651801181402 -0.7448721404342045 -1.2711694973610883
H    -3.3067683431290993 1.9166558159940472 1.5555468852153584
H    3.99867141274124 -0.377172870215832 -1.6874373444744344
H    5.779192007577961 -0.5001186380797056 0.025271539875175303
H    5.213453979641949 -0.5749699569068054 2.3982654141549045
H    2.8494679339965954 -0.5891220299170331 3.128044075388757
