29

O    1.1800823594770762 -0.12173292790313638 -2.2070375459634883
O    -0.6622098490320599 2.0957647059984357 0.8291518762921231
O    -5.018912190721753 1.2200897983671586 0.2841370422215261
O    -0.12746645638599505 -0.5049173204185694 2.1046148683618586
C    1.258872353745768 -0.23433385162031295 -1.0292961824412639
C    -1.1315486545407702 0.22788078076260745 -0.5287879764868333
C    -2.2180830629866044 -0.824300581485035 -0.494282856839206
C    -3.5406539552984615 -0.19718538495163876 -0.8990233687903167
C    -3.9012009322701853 0.9477782039419259 -0.00814186306070886
C    -1.4956261977966079 1.429064232063431 0.3181098458570259
C    2.472033606283245 -0.41699181595237395 -0.19184812980058097
C    3.7997296180942284 -0.451173330446364 -0.551997797823024
C    4.7341812122491955 -0.5383699450174665 0.4711309453528316
C    4.3367320893712815 -0.5953764643257652 1.8017923543042256
C    2.9926365303670464 -0.5835174012774988 2.1495431992966956
C    2.077614447327864 -0.49425203567313014 1.125942485714758
C    0.595262990016641 -0.4164988514805024 1.1714984392092507
N    0.18523301997429323 -0.22902762129079926 -0.14807491322672303
N    -2.8347993613434443 1.6662396928845333 0.4923139025020999
H    -1.0227369808956046 0.5653441244059277 -1.5529793442002398
H    -1.9587383679169292 -1.605033643726575 -1.1848543224893031
H    -2.292762867310579 -1.231276245476556 0.5064280683003106
H    -3.4808817620175447 0.1606514815468098 -1.9246554464909342
H    -4.372037820340518 -0.8787380635775307 -0.8642001948824396
H    -3.066042015320471 2.390118560177723 1.1317879662626775
H    4.098830408940951 -0.39416926563867044 -1.5848510776936766
H    5.785149926146923 -0.5537340230329766 0.23255032042689386
H    5.086029979941882 -0.6497493016333238 2.5746083344624986
H    2.6755658093671637 -0.6290377213252123 3.1775006187898067
