29

O    0.8978968925804365 -0.004415220575889363 -2.01557189387532
O    -1.3296447892106307 1.5127946644608603 1.8510166950777862
O    -5.238351847379031 0.6743372360138964 -0.1236294917188914
O    0.2140844873233991 -0.5123155634272559 2.4168128697245432
C    1.1338891594042833 -0.0810776952352344 -0.8550270650348682
C    -1.1844589372353407 0.31219935778175834 -0.18978927201063903
C    -2.0538814739829774 -0.8040989357741138 -0.68060731692787
C    -3.3481112458063187 -0.22969916344391156 -1.2078089942937762
C    -4.058413492866023 0.5517527810576307 -0.16031696615776136
C    -1.884967042322358 1.0484816660653522 0.922318902712352
C    2.44430197121467 -0.2339593055225387 -0.19706186599983086
C    3.7082563613758484 -0.24949006123667025 -0.7260323578475466
C    4.768765906613943 -0.30413198039453077 0.15966201039232242
C    4.5519544900609885 -0.34889728413365095 1.525846038187413
C    3.269280775904773 -0.3662740390580791 2.0429550641005902
C    2.229487617792641 -0.3120746752909339 1.1532510882366211
C    0.7691829801020265 -0.31038832988516807 1.4002839109623075
N    0.18331917793985142 -0.04594897841193905 0.15244897183453207
N    -3.2562937223168262 1.0644373260437165 0.8306490528408257
H    -1.0697696989997647 0.9640990346101302 -1.0236117654917518
H    -1.5427301005761185 -1.2888227588003396 -1.4819038713199333
H    -2.251079129929634 -1.4656239967201012 0.12846153501607963
H    -3.1342683413306456 0.3674162881057789 -2.0697107374976755
H    -4.058838811998953 -0.9347942124569177 -1.5569357799980674
H    -3.731032200211384 1.4437425632230212 1.6148327338693518
H    3.8674804766308877 -0.20351515078659776 -1.7845316059420535
H    5.773020384239177 -0.30359086563736976 -0.2155649915729394
H    5.3916074679734844 -0.3746159905426005 2.1920032565016085
H    3.093566635249351 -0.4120109521488241 3.0986411049843583
