29

O    0.684284171020289 0.2492216137378121 -1.8183093926492346
O    -1.9965277200845168 0.7414280489122065 2.332402399304211
O    -5.249407231643148 0.10451997322120883 -0.6314147957624622
O    0.4908405061429877 -0.10499022550267939 2.703996940182415
C    1.020430147775343 0.17039967453585642 -0.6826565486933415
C    -1.275625897918314 0.21541911141107212 0.0803707703941719
C    -1.8230325548234054 -0.9694047283531413 -0.6604520324610175
C    -3.1004656968416477 -0.5602495916634828 -1.3576444408915427
C    -4.084423652525865 0.03682629974230649 -0.41130274245786896
C    -2.2451849582990757 0.5117696862255823 1.2053901948945578
C    2.3923232198269573 0.10999469067004389 -0.15953097126368757
C    3.597861335138065 0.11911119074997445 -0.8125859055415362
C    4.740715485772211 0.09094711224949092 -0.037222257951042725
C    4.660566311344079 0.05850081738831628 1.344959827270228
C    3.436855136384216 0.034040712705897584 1.9863312549322831
C    2.31358900881678 0.052365195615681745 1.2018068256943106
C    0.8882685245095546 0.007222140017216202 1.605287748584414
N    0.1533729785890775 0.11340802134157073 0.40505181735770684
N    -3.563053195824602 0.44656273499227017 0.7918326556568887
H    -1.3282984354237608 1.0153523780714069 -0.6077448778358326
H    -1.1220482272003196 -1.2756591808432092 -1.4051894657476038
H    -2.0041535887408366 -1.7428302748838054 0.037834137826896264
H    -2.862856886015169 0.11375953541647092 -2.1476086313800846
H    -3.6196218702916796 -1.336926532901736 -1.8509398959273295
H    -4.229619502665084 0.6536227092065322 1.501567763724977
H    3.6491790767464334 0.15237044368722266 -1.8818639154434837
H    5.702566981003355 0.09933480867853159 -0.5097311497836935
H    5.562229063261076 0.04768901771993514 1.924259905442891
H    3.3654914546024712 -0.0002896376614040262 3.0541840372170403
29

O    0.6841573667501637 0.2545229348581738 -1.8187116970974564
O    -1.9958593899705193 0.751466154947063 2.3296773451723376
O    -5.250203826286805 0.10544799816007361 -0.6306157792567383
O    0.4904814242926602 -0.11253069897503408 2.7029610754677065
C    1.020742422591969 0.17181072253994378 -0.683387147832098
C    -1.2753125629528073 0.21519003453819988 0.07937099590753997
C    -1.8234595906738678 -0.9721308809465885 -0.6588788260318332
C    -3.1015932359706793 -0.5641234084091272 -1.3563518011506472
C    -4.085080995402096 0.036825040688510925 -0.41119329917922903
C    -2.244584514913527 0.5159849441442639 1.203779600033884
C    2.392856364971672 0.1117688244554705 -0.15971205443134506
C    3.5985376204187682 0.1243867128457018 -0.8130766918672706
C    4.741067365510056 0.09399865595680103 -0.036838766311792344
C    4.660622936571106 0.05634388160938807 1.3455079816761581
C    3.436885344933502 0.029358658053058102 1.9873044394006785
C    2.313959810501782 0.050027491885373254 1.201802064688546
C    0.8881564289892042 0.0038990984531176065 1.6046954309073784
N    0.15358346665117545 0.1124719930685303 0.40428756829894696
N    -3.562663301140522 0.45077978099483235 0.7902697145374582
H    -1.3275004622871318 1.0149292004992259 -0.6102124934754165
H    -1.1225531776460118 -1.2809267420714694 -1.4032199487858548
H    -2.004495237352811 -1.7450010836041718 0.04122736918769919
H    -2.864746215257836 0.10860545038540322 -2.148553446325548
H    -3.621007723211431 -1.3434015665597794 -1.8468612013890282
H    -4.228959983373544 0.662588636947881 1.4991196717186448
H    3.65009000327152 0.16120337852986952 -1.8824973936996543
H    5.703367517223989 0.10454764248834046 -0.5089968248698464
H    5.5625305170651655 0.04396358785900016 1.9248870837063508
H    3.365235608597956 -0.008490698881882489 3.0552962851823877
29

O    0.6867947438401701 0.2509573649972994 -1.8217113030329812
O    -1.9893799192840873 0.7491341449533809 2.3288473667970173
O    -5.251704844994591 0.10286197740329354 -0.6246400367326997
O    0.4860507317202546 -0.10978095023172527 2.6998153173517405
C    1.022094240602723 0.17147966987556673 -0.6857641923511565
C    -1.275244078895873 0.21596889623623272 0.07703059423918417
C    -1.8237930790060046 -0.9706682029405683 -0.6622459831367201
C    -3.1041277750413667 -0.5625898269178083 -1.3560658471487825
C    -4.086074024618222 0.03579762869080487 -0.40739574196069317
C    -2.242415525075255 0.5152364005248954 1.2035264623793682
C    2.393784864716094 0.11058991796267417 -0.16060491728746706
C    3.600725268153776 0.12006328932731604 -0.8119803677250829
C    4.742729105993375 0.09124775141872876 -0.03467678142952926
C    4.660420492742079 0.05825816226861113 1.3477843365789504
C    3.435368432409352 0.033441843107127965 1.987453731579483
C    2.3129118804214075 0.051862279700403115 1.2010078065158045
C    0.8865042072010186 0.005031923405548545 1.602333465777278
N    0.15360107466651696 0.11346917222883614 0.40098870111946283
N    -3.561639838292551 0.44874532471859113 0.7936745203319078
H    -1.3286356174608667 1.016848955291629 -0.611638650025876
H    -1.1237507843826122 -1.277412864935233 -1.4085473777255766
H    -2.002518383188913 -1.7455141844697177 0.036782502584179
H    -2.8702995911351197 0.11242219821104346 -2.1476783179250107
H    -3.623753106340604 -1.3421170922323982 -1.8464600919589922
H    -4.226544656411173 0.6587550663440992 1.5044268496738185
H    3.6536293493158047 0.15406476516599887 -1.8815239121266882
H    5.705681602438833 0.09988302047699028 -0.5058224710742427
H    5.561549262107049 0.0472210372200535 1.92862945597946
H    3.362289949903506 -0.0017419234801105208 3.0555341334730306
29

O    0.6829009219031759 0.24751370954392438 -1.8180471197494106
O    -1.996747085640436 0.7497080280014591 2.3308346604257077
O    -5.250083221130021 0.10335573603815341 -0.6304551598782717
O    0.4908370246479495 -0.11042887755012816 2.704443207850577
C    1.0197354454237624 0.1700596141986959 -0.6824717406245637
C    -1.2753323741205032 0.2163665448328519 0.08011488776206957
C    -1.8225280734972034 -0.9689649788621769 -0.6607579929174261
C    -3.1011041001655597 -0.5611428729270393 -1.3574222281112642
C    -4.084944604064021 0.0364420993210848 -0.41081080707112133
C    -2.24494648895461 0.5159315657215897 1.2045165413276908
C    2.3920536160104513 0.1091439977496416 -0.15938657648326157
C    3.597836585912389 0.11745683095717573 -0.8125136255436858
C    4.741096077335364 0.09001600384670339 -0.03731022947347216
C    4.661119820196287 0.0588936805598669 1.3451441011220528
C    3.4371527573964697 0.034299750639304474 1.986533261684491
C    2.313392251022794 0.051732405839465 1.2022579384993455
C    0.8878413824114556 0.004517033252337381 1.6058058260203711
N    0.1531522068888392 0.11330687335538704 0.4056412568660951
N    -3.562963871572351 0.44851332561035534 0.7914595721412456
H    -1.3271395652560958 1.0164517537111657 -0.608899779888743
H    -1.1209223416730747 -1.2748260180022728 -1.4056982019088602
H    -2.0023957670396197 -1.7434937633555192 0.0375948599718627
H    -2.8654593000272217 0.11362613676688482 -2.1481412075768676
H    -3.619726191164433 -1.3397773672206406 -1.8491805672872956
H    -4.229557995753627 0.6573446378143729 1.5008014056647905
H    3.648977873964366 0.15014765855585124 -1.8820314946263963
H    5.703097762426493 0.09820670178821893 -0.5100577421408052
H    5.56304090781203 0.048821061947716904 1.9244978302199613
H    3.3658703295150065 0.00029447205170670163 3.054618376154343
29

O    0.6880231492199329 0.2511458477480442 -1.8210875426334991
O    -1.9915576435972875 0.7532875121018938 2.327709215587414
O    -5.251096219039285 0.10573926218432307 -0.6263277466711324
O    0.48906202069771926 -0.11213831724825282 2.7003910704973153
C    1.022254597483587 0.17014206914086616 -0.685022613758557
C    -1.2750207820811885 0.21575278531364966 0.07727099385384811
C    -1.8245947305313985 -0.9704011262521386 -0.6600703302002402
C    -3.103857752219729 -0.5631743454409198 -1.355419609176517
C    -4.085665445842036 0.03744796993036394 -0.40876578273704794
C    -2.2426800288050455 0.517685638564873 1.2024464792731415
C    2.3937607059908967 0.11009804022419495 -0.16025253234832507
C    3.599931526782679 0.12148906390390722 -0.8123310869649213
C    4.741598433339172 0.09224724035691144 -0.03508451881733313
C    4.659774837530055 0.056575968716838634 1.347045622195062
C    3.435549497390567 0.030250276290263348 1.9875705212643615
C    2.3135400398072976 0.04994708224126387 1.2010708384922626
C    0.887445987186498 0.0038589302507932733 1.6023995520617706
N    0.1538231123765226 0.11264763893536815 0.40163069331337564
N    -3.561443332598781 0.4510100285931695 0.7919140363749646
H    -1.3271071920380542 1.0144511851355094 -0.6128884404532207
H    -1.1248918753306927 -1.2785155783022835 -1.405573549646883
H    -2.0039113640365978 -1.7427581403015286 0.04033608402097446
H    -2.8686106660542627 0.10895775834210356 -2.1480638399148164
H    -3.6240936189206105 -1.3420114130466594 -1.8445355984279117
H    -4.2265933250624546 0.6619090226325709 1.5019237993103043
H    3.652518621515242 0.15678957665177276 -1.8816146615296971
H    5.704231521481464 0.10206330974343054 -0.5062576027723874
H    5.560987953216114 0.045137702671257746 1.9272617584530602
H    3.3628759553785565 -0.006119244920174046 3.0554040448639235
29

O    0.6844139842450258 0.2512372462550917 -1.8200055061373388
O    -1.9907722557029592 0.7553934588080591 2.327330329658501
O    -5.250598477158605 0.10553850531594708 -0.6271884202355149
O    0.4869810279332676 -0.11275322466891445 2.701176537420285
C    1.0212554391832105 0.17085320761954487 -0.68461680503336
C    -1.2747038518409517 0.21636602635776292 0.07747455352775008
C    -1.8236716216410176 -0.970537323138784 -0.6601841867651727
C    -3.10313525220839 -0.5631912966132785 -1.355535497892852
C    -4.085234412485481 0.037673112317886656 -0.4089456172025814
C    -2.242617548225393 0.5187553760798501 1.2023821864848947
C    2.3929814323995355 0.11002088498653123 -0.15993048999407994
C    3.5992627516497184 0.12059847648651653 -0.8121863340127162
C    4.7415997012282105 0.09086838690146432 -0.03565260272867581
C    4.660288481862345 0.05593912991353809 1.3466854200507825
C    3.4358431009481727 0.030509476912750726 1.9871912819789026
C    2.3130100176428723 0.05004781574677072 1.201569785099657
C    0.8869866288940936 0.0036011067474739466 1.6037423195652987
N    0.15376268910965074 0.11305418399053441 0.40276621659064893
N    -3.5614588318861067 0.4518531141292223 0.7918500989077394
H    -1.3262652498044034 1.0156627015147361 -0.6127317353791908
H    -1.1235514058533507 -1.2784614563159793 -1.4056913497843284
H    -2.0029631798668994 -1.743822936652718 0.03989165307631417
H    -2.8682208020595037 0.10951409850470602 -2.1483476775282497
H    -3.6230171162107965 -1.3428679805963324 -1.8445778465093035
H    -4.2267632649113835 0.6634402499310968 1.5016277772908226
H    3.6514407409401164 0.15568364948557326 -1.881614452914334
H    5.7041244019066095 0.10008483030601308 -0.5073709009336673
H    5.56172901561381 0.04420182122993565 1.9268005588922827
H    3.363547839996703 -0.005746897356318989 3.0551699581127374
29

O    0.6872773023531973 0.2491576539797428 -1.82129676725033
O    -1.9908386672898033 0.7560060379597339 2.327502311018573
O    -5.251494604898472 0.1063408671029855 -0.6255351606002834
O    0.48833454419069194 -0.11376157414752378 2.7004001850772763
C    1.0218863082151968 0.17007093282925964 -0.6851577680706855
C    -1.2751176867441154 0.21650729967014642 0.07701217630487132
C    -1.8245894843689379 -0.9700695156850421 -0.6608538319359882
C    -3.1044786246147122 -0.5623279157432718 -1.3553637954354751
C    -4.085994563336603 0.038299782942567175 -0.4080288605992187
C    -2.2423804461792582 0.5192979987663956 1.2024929134309035
C    2.393656157222807 0.1088076084329261 -0.1604759522259101
C    3.600415750144386 0.11820188439607116 -0.8119452248380385
C    4.742532364099371 0.08994606550736364 -0.03494681674443354
C    4.660453250375779 0.05713764031744543 1.3474208826694942
C    3.435630025602205 0.03173700895698184 1.9873046942378096
C    2.313150683330156 0.0499611136566539 1.2010797689527224
C    0.8869004127018494 0.002610004532434839 1.6024525361332176
N    0.15349700635403987 0.11273763070062336 0.4016037288254354
N    -3.5613626816439026 0.45203965751009006 0.7925504823709485
H    -1.326648717538953 1.0159528810965548 -0.6131795822121684
H    -1.124801957634228 -1.2775952115381666 -1.4069221784571506
H    -2.003464146243456 -1.7438651891202324 0.0389482546046527
H    -2.8700891135675355 0.11081075769408172 -2.1481558335065274
H    -3.624719767347129 -1.341951369317304 -1.8442671129634838
H    -4.226324484219623 0.6634078557502487 1.5027169731326833
H    3.653121832599947 0.15214477133735044 -1.8814126904268245
H    5.705309533078149 0.09885505834649196 -0.5062379340910271
H    5.561609942346016 0.04650545563966457 1.9280582713858103
H    3.3627838159551953 -0.003449447355714264 3.0553155853141223
29

O    0.6864198276418104 0.24909584326328973 -1.8208362322078624
O    -1.9903430256203893 0.7571607363487934 2.3268479364923693
O    -5.251037200676822 0.10653624278179108 -0.6260353439074029
O    0.4880557953250835 -0.11333864787193493 2.700683613466966
C    1.0217656435897469 0.1697256659319578 -0.6849513949688214
C    -1.274720107136275 0.2169002335774617 0.07697573569837056
C    -1.8243024766894858 -0.9695549025962619 -0.6603208343900967
C    -3.104020331749124 -0.5623440892010516 -1.3552252750419511
C    -4.085577575872936 0.038665997288039364 -0.4083747611941125
C    -2.2421933187760086 0.520323306282374 1.2019669920988236
C    2.3933899237212555 0.10867410977778773 -0.16016528733444807
C    3.5996762991895572 0.11842997818289938 -0.8123048735768879
C    4.741568355749779 0.08957997006856952 -0.0351687199222667
C    4.659967134301291 0.055875473558237264 1.3471304621030777
C    3.4355488313843576 0.03055526409418858 1.9875817039450068
C    2.3131995184602356 0.04954869073743016 1.20134983114765
C    0.8870580482730588 0.0030550285493022296 1.6029164912733627
N    0.15376437149528988 0.1130156976180259 0.40205227716048575
N    -3.5611367957857514 0.45272574660531084 0.7921152746266353
H    -1.325862754738165 1.0156300449049738 -0.6137377054919719
H    -1.124477212046482 -1.2773342282898175 -1.406110570440248
H    -2.0032390232115893 -1.74260543295627 0.039929548782495244
H    -2.8694162239044876 0.10998967184910519 -2.1483664347514027
H    -3.624336185027457 -1.3418856805153716 -1.843702866606816
H    -4.226136946439674 0.6640733725943766 1.5021798544821805
H    3.6521804018981148 0.1526502093964781 -1.8817160510698143
H    5.70421870475629 0.09845391149517693 -0.506545903344884
H    5.5612871703224664 0.04480475256820961 1.927373401327076
H    3.362953134568483 -0.0048912218336424635 3.0555383857961145
29

O    0.6864397211083471 0.24951154152140048 -1.8208938167140445
O    -1.989551648087363 0.7598115771515949 2.325821470596911
O    -5.251051612628704 0.1085258968042779 -0.6258937810640033
O    0.4870342768215246 -0.11486548643574516 2.700270218507951
C    1.0218770529187102 0.1693646978996348 -0.6850894100812398
C    -1.274632879503775 0.21677413387040229 0.07651915188161691
C    -1.8249375807881456 -0.9699962747525137 -0.6597134497025828
C    -3.1045585596079213 -0.5627054106776955 -1.3546990565421537
C    -4.085624834238925 0.03986366028563805 -0.4083246424103169
C    -2.241807257382555 0.5216846778563913 1.2013061218006311
C    2.3934578783871427 0.1084172460816325 -0.1601844841563177
C    3.6001386662530184 0.1189709300174396 -0.8115899021220232
C    4.742450443215411 0.08967573804406695 -0.035071384500221695
C    4.66033264478491 0.05488131537152607 1.3471503249327286
C    3.43555531451446 0.029134384586322868 1.986938953358095
C    2.312874977899217 0.0485317981471144 1.2012125467527845
C    0.8867483469808715 0.0021047939347286835 1.602817963723949
N    0.1537659039913109 0.1124899475687579 0.40182043221668734
N    -3.5608486997066677 0.4545838726966016 0.7917782782853693
H    -1.325207776337085 1.0149919472987412 -0.6148306115492435
H    -1.1254617221014984 -1.2786730186055157 -1.4054296464909508
H    -2.0040971353370547 -1.7423925741604875 0.04117445520820643
H    -2.8696672052996943 0.10863514342963254 -2.1485697503057346
H    -3.6254339390898123 -1.3423826696084373 -1.8422945844389373
H    -4.225621647309312 0.6671426885846198 1.5016877138130598
H    3.652690999171234 0.1538887163438073 -1.8809539489013467
H    5.705086380389165 0.09903107207948576 -0.5064715055420175
H    5.561414790961087 0.04348731812014403 1.9277437120831924
H    3.3628890832038514 -0.006971919427979706 3.054847885044349
29

O    0.6867643152588028 0.24916752578414222 -1.82139727891733
O    -1.9885993641030983 0.7610936229107678 2.3254047605258665
O    -5.2511498570515815 0.10900668333100622 -0.625146971024998
O    0.4870596139090361 -0.11532321328429973 2.699754366899226
C    1.0221285508072575 0.1694086280684627 -0.6855351767626128
C    -1.274515188101325 0.21710406513932073 0.07608303081230078
C    -1.8250990335841641 -0.9698280927064765 -0.6598823713830311
C    -3.104970467559737 -0.5624590313533231 -1.3544443810982092
C    -4.085666403285265 0.04040908778462429 -0.4078264407124904
C    -2.2413085315895933 0.5225243926121617 1.201072252578782
C    2.3936356211735546 0.1079735102566144 -0.16037814017497007
C    3.600268344294854 0.1179808792289557 -0.811911972415209
C    4.7421129822429515 0.08873733915967287 -0.034662451432726955
C    4.66005843537834 0.054564328125464044 1.347613475533695
C    3.4352820852901815 0.029151258094407686 1.9874449949975304
C    2.3129955001774354 0.04836289292525619 1.2010912954532051
C    0.8867396677029605 0.0018058943778381195 1.6023018936650262
N    0.15387078141091415 0.11259989424571765 0.4012584946630513
N    -3.5605049985594253 0.45530757991958765 0.7920664963667147
H    -1.3249423189686438 1.015328073651448 -0.6154281790201531
H    -1.1258499904506485 -1.2785517006200344 -1.40584633988213
H    -2.0040675722100993 -1.7423605918295704 0.041061082417202584
H    -2.8703812753195366 0.1088379290322216 -2.1485760522922823
H    -3.6260656631881796 -1.3423289846457496 -1.8416580645047522
H    -4.225041107595783 0.6680857792663023 1.5021436067227334
H    3.653089154945204 0.1526157915438145 -1.881303669459682
H    5.704889747940449 0.09778386705295115 -0.5058198820053396
H    5.561159707289573 0.04322819751371611 1.9282240769578387
H    3.362361245946524 -0.00670986156030311 3.0553767966782255
