29

O    1.0145212278351436 -0.1008851122746109 -2.116098649766994
O    -0.9916808943575864 1.7428113793641422 1.5312486377891252
O    -5.155511870254459 0.9284215232348428 0.13364055716094828
O    0.0560416017543275 -0.5846636234733453 2.263751748196848
C    1.184550308982044 -0.18338809789832905 -0.9449822589123787
C    -1.1499559266881243 0.3143245332674167 -0.33504390389387195
C    -2.150890234000204 -0.7528787363380506 -0.6657386224181018
C    -3.4413749165599725 -0.10571161813614133 -1.1116702000681975
C    -3.9930989653409314 0.7685569453687383 -0.04294878462290689
C    -1.6910202392424687 1.223774639238769 0.7367676178885953
C    2.4537271362063446 -0.36386807694895124 -0.21069647547930614
C    3.7459939225701757 -0.38950327204897073 -0.6670486664282658
C    4.7551259163919575 -0.45276602230138907 0.27777922106003655
C    4.461191604821011 -0.4981675414179228 1.6299189975346415
C    3.1504862222889876 -0.5071470781608524 2.074280754261494
C    2.1622331773524066 -0.44226809603159273 1.1274462770671665
C    0.6909217132632136 -0.4050937993202906 1.2875813932619036
N    0.18472380626654522 -0.1330057914181295 0.01159772519818162
N    -3.0574384196948565 1.3233181734822774 0.7979634390208907
H    -1.0051781116519833 0.8701471378340286 -1.237466231162979
H    -1.7566095182692258 -1.330508891560082 -1.470097375706827
H    -2.3266408403546306 -1.3451991545573063 0.2053740956162126
H    -3.260277990900986 0.44337625374792916 -2.016521740635784
H    -4.230198094412873 -0.7741961372110008 -1.3602898391904161
H    -3.418251887076326 1.786439677420009 1.5960215504285091
H    3.9655767259970873 -0.3410445216670288 -1.7153184609635508
H    5.7797172558570145 -0.45710780163348036 -0.040320247349851776
H    5.262358658143587 -0.5296371640644125 2.3427832724763884
H    2.9152125659428796 -0.5506139497346324 3.1191654248238323
