29

O    0.6483028987609626 0.27137759780764903 -1.790927895872429
O    -2.0661476703465995 0.493903155964969 2.4080193105671657
O    -5.224651630872057 0.01888543339715677 -0.6744602214054976
O    0.5368123361656243 0.029842933098112256 2.735819512322625
C    0.9973296787877305 0.20111694464774768 -0.6596072973866524
C    -1.2896688064437165 0.18449181113439853 0.1293711341455519
C    -1.7875318221553658 -0.981299015641231 -0.6537445380243685
C    -3.0522952599723765 -0.5817812496895203 -1.3654208630056688
C    -4.065719694370364 -0.04367282145378106 -0.4252071612723027
C    -2.278947543249124 0.3610432444100519 1.2598122005569563
C    2.372044449576743 0.16574980309651027 -0.16263326815530596
C    3.561797027565993 0.17462212315485556 -0.8331035857683616
C    4.715781447419947 0.15806769844397195 -0.08265577849735128
C    4.660900409746737 0.13869213067584593 1.2957266918334716
C    3.4521665752839286 0.1207184531637788 1.955239080266744
C    2.3187740213785673 0.12660195557678497 1.194936841556459
C    0.9079931972133498 0.08847005371465229 1.6250573501682217
N    0.14784871945150996 0.13381892193031472 0.4389166402196792
N    -3.5825080190882863 0.3019042493102172 0.8091231535264982
H    -1.3873060126481738 0.9935311362102844 -0.521286318312316
H    -1.074458926259897 -1.2453140476034106 -1.393074948280456
H    -1.9640508031469044 -1.7615072162702692 0.01796319850257889
H    -2.803944120331952 0.0987687942081879 -2.1305722762258004
H    -3.5488774692124543 -1.3326094714160133 -1.8980132322130705
H    -4.266565287917741 0.4434500606683038 1.5149531531391196
H    3.59439412629217 0.19615311841233274 -1.8987751449781658
H    5.663840105324461 0.16405707857389976 -0.5718572714274343
H    5.567917798518403 0.13435847836563136 1.8575531745814617
H    3.401024108088587 0.10007441696115041 3.0199276449070283
